/*---------------------------------------------------------------------------*\
| =========                 |                                                 |
| \\      /  F ield         | OpenFOAM: The Open Source CFD Toolbox           |
|  \\    /   O peration     | Version:  2212                                  |
|   \\  /    A nd           | Website:  www.openfoam.com                      |
|    \\/     M anipulation  |                                                 |
\*---------------------------------------------------------------------------*/
Build  : 34e226dfe3-20211220 OPENFOAM=2212 version=v2212
Arch   : "LSB;label=32;scalar=64"
Exec   : D:\Storage\Apps\ESI-OpenCFD\OpenFOAM\v2212\\msys64\home\ofuser\OpenFOAM\OpenFOAM-v2212\platforms\win64MingwDPInt32Opt\bin\surfaceFeatureExtract.exe
Date   : Feb 13 2025
Time   : 14:47:40
Host   : INDIGO
PID    : 28136
I/O    : uncollated
Case   : E:/TemporaryWorkspace/freeCAD/bulletSim/meshCase
nProcs : 1
trapFpe: Floating point exception trapping enabled (FOAM_SIGFPE).
fileModificationChecking : Monitoring run-time modified files using timeStampMaster (fileModificationSkew 5, maxFileModificationPolls 20)
allowSystemOperations : Allowing user-supplied system call operations

// * * * * * * * * * * * * * * * * * * * * * * * * * * * * * * * * * * * * * //
Create time


Note: Feature line extraction only valid on closed manifold surfaces

Reading surfaceFeatureExtractDict

Surfaces     : Cut_Geometry.stl
Output       : Cut_Geometry
Load options : offset
Write options: writeObj=yes writeVTK=off

Statistics:
Triangles    : 17592 in 4 region(s)
Vertices     : 8800
Bounding Box : (-0.307524979114532 -0.023760000243783 -0.023760000243783) (0.132475003600121 0.023760000243783 0.023760000243783)

Constructing feature set from included angle 150
Selecting edges based purely on geometric tests: no

Initial Feature set:
    points : 24
    edges  : 114
    of which
        region edges   : 8
        external edges : 68
        internal edges : 38

Final Feature set:
    points : 124
    of which
        convex             : 8
        concave            : 4
        mixed              : 12
        non-feature        : 100
    edges  : 114
    of which
        external edges     : 76
        internal edges     : 38
        flat edges         : 0
        open edges         : 0
        multiply connected : 0

Writing extendedFeatureEdgeMesh to "E:/TemporaryWorkspace/freeCAD/bulletSim/meshCase/constant/extendedFeatureEdgeMesh/Cut_Geometry.extendedFeatureEdgeMesh"

Writing extendedEdgeMesh components to "E:/TemporaryWorkspace/freeCAD/bulletSim/meshCase/constant/extendedFeatureEdgeMesh/Cut_Geometry"
Writing 8 convex feature points to "E:/TemporaryWorkspace/freeCAD/bulletSim/meshCase/constant/extendedFeatureEdgeMesh/Cut_Geometry_convexFeaturePts.obj"
Writing 4 concave feature points to "E:/TemporaryWorkspace/freeCAD/bulletSim/meshCase/constant/extendedFeatureEdgeMesh/Cut_Geometry_concaveFeaturePts.obj"
Writing 12 mixed feature points to "E:/TemporaryWorkspace/freeCAD/bulletSim/meshCase/constant/extendedFeatureEdgeMesh/Cut_Geometry_mixedFeaturePts.obj"
Writing 12 mixed feature point structure to "E:/TemporaryWorkspace/freeCAD/bulletSim/meshCase/constant/extendedFeatureEdgeMesh/Cut_Geometry_mixedFeaturePtsStructure.obj"
Writing 76 external edges to "E:/TemporaryWorkspace/freeCAD/bulletSim/meshCase/constant/extendedFeatureEdgeMesh/Cut_Geometry_externalEdges.obj"
Writing 38 internal edges to "E:/TemporaryWorkspace/freeCAD/bulletSim/meshCase/constant/extendedFeatureEdgeMesh/Cut_Geometry_internalEdges.obj"
Writing 0 flat edges to "E:/TemporaryWorkspace/freeCAD/bulletSim/meshCase/constant/extendedFeatureEdgeMesh/Cut_Geometry_flatEdges.obj"
Writing 0 open edges to "E:/TemporaryWorkspace/freeCAD/bulletSim/meshCase/constant/extendedFeatureEdgeMesh/Cut_Geometry_openEdges.obj"
Writing 0 multiple edges to "E:/TemporaryWorkspace/freeCAD/bulletSim/meshCase/constant/extendedFeatureEdgeMesh/Cut_Geometry_multipleEdges.obj"
Writing 8 region edges to "E:/TemporaryWorkspace/freeCAD/bulletSim/meshCase/constant/extendedFeatureEdgeMesh/Cut_Geometry_regionEdges.obj"
Writing 114 edge directions to "E:/TemporaryWorkspace/freeCAD/bulletSim/meshCase/constant/extendedFeatureEdgeMesh/Cut_Geometry_edgeDirections.obj"

Writing featureEdgeMesh to "E:/TemporaryWorkspace/freeCAD/bulletSim/meshCase/constant/triSurface/Cut_Geometry.eMesh"
Surfaces     : MeshRefinement.stl
Output       : MeshRefinement
Load options : offset
Write options: writeObj=yes writeVTK=off

Statistics:
Triangles    : 17580 in 1 region(s)
Vertices     : 8792
Bounding Box : (0.0340000130236149 -0.00395999988541007 -0.00395999988541007) (0.0560000017285347 0.00395999988541007 0.00395999988541007)

Constructing feature set from included angle 150
Selecting edges based purely on geometric tests: no

Initial Feature set:
    points : 16
    edges  : 102
    of which
        region edges   : 0
        external edges : 64
        internal edges : 38

Final Feature set:
    points : 116
    of which
        convex             : 0
        concave            : 4
        mixed              : 12
        non-feature        : 100
    edges  : 102
    of which
        external edges     : 64
        internal edges     : 38
        flat edges         : 0
        open edges         : 0
        multiply connected : 0

Writing extendedFeatureEdgeMesh to "E:/TemporaryWorkspace/freeCAD/bulletSim/meshCase/constant/extendedFeatureEdgeMesh/MeshRefinement.extendedFeatureEdgeMesh"

Writing extendedEdgeMesh components to "E:/TemporaryWorkspace/freeCAD/bulletSim/meshCase/constant/extendedFeatureEdgeMesh/MeshRefinement"
Writing 0 convex feature points to "E:/TemporaryWorkspace/freeCAD/bulletSim/meshCase/constant/extendedFeatureEdgeMesh/MeshRefinement_convexFeaturePts.obj"
Writing 4 concave feature points to "E:/TemporaryWorkspace/freeCAD/bulletSim/meshCase/constant/extendedFeatureEdgeMesh/MeshRefinement_concaveFeaturePts.obj"
Writing 12 mixed feature points to "E:/TemporaryWorkspace/freeCAD/bulletSim/meshCase/constant/extendedFeatureEdgeMesh/MeshRefinement_mixedFeaturePts.obj"
Writing 12 mixed feature point structure to "E:/TemporaryWorkspace/freeCAD/bulletSim/meshCase/constant/extendedFeatureEdgeMesh/MeshRefinement_mixedFeaturePtsStructure.obj"
Writing 64 external edges to "E:/TemporaryWorkspace/freeCAD/bulletSim/meshCase/constant/extendedFeatureEdgeMesh/MeshRefinement_externalEdges.obj"
Writing 38 internal edges to "E:/TemporaryWorkspace/freeCAD/bulletSim/meshCase/constant/extendedFeatureEdgeMesh/MeshRefinement_internalEdges.obj"
Writing 0 flat edges to "E:/TemporaryWorkspace/freeCAD/bulletSim/meshCase/constant/extendedFeatureEdgeMesh/MeshRefinement_flatEdges.obj"
Writing 0 open edges to "E:/TemporaryWorkspace/freeCAD/bulletSim/meshCase/constant/extendedFeatureEdgeMesh/MeshRefinement_openEdges.obj"
Writing 0 multiple edges to "E:/TemporaryWorkspace/freeCAD/bulletSim/meshCase/constant/extendedFeatureEdgeMesh/MeshRefinement_multipleEdges.obj"
Writing 0 region edges to "E:/TemporaryWorkspace/freeCAD/bulletSim/meshCase/constant/extendedFeatureEdgeMesh/MeshRefinement_regionEdges.obj"
Writing 102 edge directions to "E:/TemporaryWorkspace/freeCAD/bulletSim/meshCase/constant/extendedFeatureEdgeMesh/MeshRefinement_edgeDirections.obj"

Writing featureEdgeMesh to "E:/TemporaryWorkspace/freeCAD/bulletSim/meshCase/constant/triSurface/MeshRefinement.eMesh"
ExecutionTime = 0.237 s  ClockTime = 1 s

End

