/*---------------------------------------------------------------------------*\
| =========                 |                                                 |
| \\      /  F ield         | OpenFOAM: The Open Source CFD Toolbox           |
|  \\    /   O peration     | Version:  2212                                  |
|   \\  /    A nd           | Website:  www.openfoam.com                      |
|    \\/     M anipulation  |                                                 |
\*---------------------------------------------------------------------------*/
Build  : 34e226dfe3-20211220 OPENFOAM=2212 version=v2212
Arch   : "LSB;label=32;scalar=64"
Exec   : snappyHexMesh -parallel -overwrite
Date   : Feb 13 2025
Time   : 14:47:43
Host   : INDIGO
PID    : 28276
I/O    : uncollated
Case   : E:/TemporaryWorkspace/freeCAD/bulletSim/meshCase
nProcs : 8
Hosts  :
(
    (INDIGO 8)
)
Pstream initialized with:
    floatTransfer      : 0
    nProcsSimpleSum    : 0
    commsType          : nonBlocking
    polling iterations : 0
trapFpe: Floating point exception trapping enabled (FOAM_SIGFPE).
fileModificationChecking : Monitoring run-time modified files using timeStampMaster (fileModificationSkew 5, maxFileModificationPolls 20)
allowSystemOperations : Allowing user-supplied system call operations

// * * * * * * * * * * * * * * * * * * * * * * * * * * * * * * * * * * * * * //
Create time

Create mesh for time = 0

Read mesh in = 0.148 s

Overall mesh bounding box  : (-0.322525 -0.03876 -0.03876) (0.147475 0.03876 0.03876)
Relative tolerance         : 1e-06
Absolute matching distance : 4.82616515258233e-07

Reading refinement surfaces.
Read refinement surfaces in = 0.162 s

Reading refinement shells.
Refinement level 1 for all cells inside MeshRefinement001.stl
Read refinement shells in = 0.013 s

Setting refinement level of surface to be consistent with shells.
For geometry Cut_Geometry.stl detected 0 uncached triangles out of 17592
For geometry MeshRefinement.stl detected 0 uncached triangles out of 17580
Checked shell refinement in = 0.084 s

Reading features.
Read edgeMesh Cut_Geometry.eMesh
    points      : 124
    edges       : 114
    boundingBox : (-0.307524979114532 -0.023760000243783 -0.023760000243783) (0.132475003600121 0.023760000243783 0.023760000243783)

Refinement level according to distance to "Cut_Geometry.eMesh" (124 points, 114 edges).
    level 1 for all cells within 0 metre.
Read edgeMesh MeshRefinement.eMesh
    points      : 116
    edges       : 102
    boundingBox : (0.0347632393240929 -0.00216697342693806 -0.00217125797644258) (0.0348064973950386 0.00216697342693806 0.00217125797644258)

Refinement level according to distance to "MeshRefinement.eMesh" (116 points, 102 edges).
    level 0 for all cells within 0 metre.
Read features in = 0.005 s


Determining initial surface intersections
-----------------------------------------

Edge intersection testing:
    Number of edges             : 327236
    Number of edges to retest   : 0
    Number of intersected edges : 0
Edge intersection testing:
    Number of edges             : 327236
    Number of edges to retest   : 327236
    Number of intersected edges : 9980
Calculated surface intersections in = 0.101 s

Initial mesh : cells:106132  faces:327236  points:115182
Cells per refinement level:
    0	106132
Setting refinement level of surface to be consistent with curvature.
Checked curvature refinement in = 0.001 s


Adding patches for surface regions
----------------------------------

Patch Type                Region                        
----- ----                ------                        
Cut_Geometry:

6     wall                patch_1_0                     
7     wall                patch_2_0                     
8     wall                patch_3_0                     
9     wall                patch_4_1                     

MeshRefinement:

10    wall                MeshRefinement                
11    wall                MeshRefinement_slave          

Added patches in = 0.03 s

Edge intersection testing:
    Number of edges             : 327236
    Number of edges to retest   : 0
    Number of intersected edges : 9980
Decomposition method scotch [8]

Refinement phase
----------------

Found point (-0.034239 0.000520738 0.00259) in cell 6814 on processor 2

Feature refinement iteration 0
------------------------------

Marked for refinement due to explicit features             : 704 cells.
Determined cells to refine in = 0.138 s
Selected for feature refinement : 704 cells (out of 106132)
Edge intersection testing:
    Number of edges             : 346232
    Number of edges to retest   : 33628
    Number of intersected edges : 14248
Refined mesh in = 0.125 s
After refinement feature refinement iteration 0 : cells:111060  faces:346232  points:125019
Cells per refinement level:
    0	105428
    1	5632
Balanced mesh in = 0.466 s
After balancing feature refinement iteration 0 : cells:111060  faces:346232  points:125019
Cells per refinement level:
    0	105428
    1	5632

Feature refinement iteration 1
------------------------------

Marked for refinement due to explicit features             : 0 cells.
Determined cells to refine in = 0.129 s
Selected for feature refinement : 0 cells (out of 111060)
Stopping refining since too few cells selected.


Surface refinement iteration 0
------------------------------

Marked for refinement due to surface intersection          : 104 cells.
Determined cells to refine in = 0.001 s
Selected for refinement : 104 cells (out of 111060)
Edge intersection testing:
    Number of edges             : 348692
    Number of edges to retest   : 3216
    Number of intersected edges : 14600
Refined mesh in = 0.113 s
After refinement surface refinement iteration 0 : cells:111788  faces:348692  points:126044
Cells per refinement level:
    0	105352
    1	6212
    2	224
Balanced mesh in = 0.463 s
After balancing surface refinement iteration 0 : cells:111788  faces:348692  points:126044
Cells per refinement level:
    0	105352
    1	6212
    2	224

Surface refinement iteration 1
------------------------------

Marked for refinement due to surface intersection          : 492 cells.
Determined cells to refine in = 0.014 s
Selected for refinement : 556 cells (out of 111788)
Edge intersection testing:
    Number of edges             : 361736
    Number of edges to retest   : 16612
    Number of intersected edges : 15732
Refined mesh in = 0.141 s
After refinement surface refinement iteration 1 : cells:115680  faces:361736  points:131329
Cells per refinement level:
    0	105276
    1	6460
    2	2984
    3	960
Balanced mesh in = 0.491 s
After balancing surface refinement iteration 1 : cells:115680  faces:361736  points:131329
Cells per refinement level:
    0	105276
    1	6460
    2	2984
    3	960

Surface refinement iteration 2
------------------------------

Marked for refinement due to surface intersection          : 1988 cells.
Determined cells to refine in = 0.018 s
Selected for refinement : 2276 cells (out of 115680)
Edge intersection testing:
    Number of edges             : 414200
    Number of edges to retest   : 67720
    Number of intersected edges : 20572
Refined mesh in = 0.24 s
After refinement surface refinement iteration 2 : cells:131612  faces:414200  points:151971
Cells per refinement level:
    0	105256
    1	6396
    2	3276
    3	12428
    4	4256
Balanced mesh in = 0.585 s
After balancing surface refinement iteration 2 : cells:131612  faces:414200  points:151971
Cells per refinement level:
    0	105256
    1	6396
    2	3276
    3	12428
    4	4256

Surface refinement iteration 3
------------------------------

Marked for refinement due to surface intersection          : 5910 cells.
Determined cells to refine in = 0.023 s
Selected for refinement : 6498 cells (out of 131612)
Edge intersection testing:
    Number of edges             : 564626
    Number of edges to retest   : 197934
    Number of intersected edges : 33752
Refined mesh in = 0.389 s
After refinement surface refinement iteration 3 : cells:177098  faces:564626  points:211406
Cells per refinement level:
    0	105240
    1	6472
    2	3108
    3	11254
    4	51024
Balanced mesh in = 0.775 s
After balancing surface refinement iteration 3 : cells:177098  faces:564626  points:211406
Cells per refinement level:
    0	105240
    1	6472
    2	3108
    3	11254
    4	51024

Surface refinement iteration 4
------------------------------

Marked for refinement due to surface intersection          : 188 cells.
Determined cells to refine in = 0.032 s
Selected for refinement : 196 cells (out of 177098)
Edge intersection testing:
    Number of edges             : 569006
    Number of edges to retest   : 11188
    Number of intersected edges : 34104
Refined mesh in = 0.171 s
After refinement surface refinement iteration 4 : cells:178470  faces:569006  points:213037
Cells per refinement level:
    0	105240
    1	6472
    2	3100
    3	11130
    4	52528
Balanced mesh in = 0.745 s
After balancing surface refinement iteration 4 : cells:178470  faces:569006  points:213037
Cells per refinement level:
    0	105240
    1	6472
    2	3100
    3	11130
    4	52528

Surface refinement iteration 5
------------------------------

Marked for refinement due to surface intersection          : 0 cells.
Determined cells to refine in = 0.031 s
Selected for refinement : 0 cells (out of 178470)
Stopping refining since too few cells selected.


Removing mesh beyond surface intersections
------------------------------------------

Setting cellZones according to locationsInMesh:
Location : (-0.034239 0.000520738 0.00259)
    cellZone : none

For cellZone none found point (-0.034239 0.000520738 0.00259) in global region 0 out of 3 regions.
Walking from known cellZones; crossing a faceZone face changes cellZone

--> FOAM Warning : 
    From void Foam::meshRefinement::nearestFace(const labelUList&, const Foam::bitSet&, Foam::autoPtr<Foam::mapDistribute>&, Foam::labelList&, Foam::label) const
    in file meshRefinement/meshRefinement.C at line 515
    Did not visit some faces, e.g. face 0 at (0.0389558917197452 0.00298153846153846 -0.00819923076923076)
Keeping all cells containing inside points
Selected for keeping : 109894 cells.
Edge intersection testing:
    Number of edges             : 362680
    Number of edges to retest   : 28304
    Number of intersected edges : 34104

Shell refinement iteration 0
----------------------------

Marked for refinement due to distance to explicit features : 0 cells.
Marked for refinement due to refinement shells             : 6320 cells.
Determined cells to refine in = 0.26 s
Selected for internal refinement : 11443 cells (out of 109894)
Edge intersection testing:
    Number of edges             : 608569
    Number of edges to retest   : 397926
    Number of intersected edges : 34104
Refined mesh in = 0.339 s
After refinement shell refinement iteration 0 : cells:189995  faces:608569  points:229444
Cells per refinement level:
    0	41064
    1	56733
    2	3677
    3	9997
    4	78524
Balanced mesh in = 0.764 s
After balancing shell refinement iteration 0 : cells:189995  faces:608569  points:229451
Cells per refinement level:
    0	41064
    1	56733
    2	3677
    3	9997
    4	78524

Shell refinement iteration 1
----------------------------

Marked for refinement due to distance to explicit features : 0 cells.
Marked for refinement due to refinement shells             : 0 cells.
Determined cells to refine in = 0.055 s
Selected for internal refinement : 1090 cells (out of 189995)
Edge intersection testing:
    Number of edges             : 632008
    Number of edges to retest   : 71110
    Number of intersected edges : 34113
Refined mesh in = 0.228 s
After refinement shell refinement iteration 1 : cells:197625  faces:632008  points:237635
Cells per refinement level:
    0	41053
    1	56584
    2	4973
    3	14555
    4	80460
Balanced mesh in = 0.887 s
After balancing shell refinement iteration 1 : cells:197625  faces:632008  points:237650
Cells per refinement level:
    0	41053
    1	56584
    2	4973
    3	14555
    4	80460

Shell refinement iteration 2
----------------------------

Marked for refinement due to distance to explicit features : 0 cells.
Marked for refinement due to refinement shells             : 0 cells.
Determined cells to refine in = 0.058 s
Selected for internal refinement : 176 cells (out of 197625)
Edge intersection testing:
    Number of edges             : 635785
    Number of edges to retest   : 12978
    Number of intersected edges : 34128
Refined mesh in = 0.209 s
After refinement shell refinement iteration 2 : cells:198857  faces:635785  points:238964
Cells per refinement level:
    0	41033
    1	56618
    2	5952
    3	14786
    4	80468
Balanced mesh in = 0.802 s
After balancing shell refinement iteration 2 : cells:198857  faces:635785  points:238971
Cells per refinement level:
    0	41033
    1	56618
    2	5952
    3	14786
    4	80468

Shell refinement iteration 3
----------------------------

Marked for refinement due to distance to explicit features : 0 cells.
Marked for refinement due to refinement shells             : 0 cells.
Determined cells to refine in = 0.058 s
Selected for internal refinement : 24 cells (out of 198857)
Edge intersection testing:
    Number of edges             : 636319
    Number of edges to retest   : 1635
    Number of intersected edges : 34146
Refined mesh in = 0.197 s
After refinement shell refinement iteration 3 : cells:199025  faces:636319  points:239169
Cells per refinement level:
    0	41015
    1	56757
    2	5992
    3	14785
    4	80476
Balanced mesh in = 0.773 s
After balancing shell refinement iteration 3 : cells:199025  faces:636319  points:239174
Cells per refinement level:
    0	41015
    1	56757
    2	5992
    3	14785
    4	80476

Shell refinement iteration 4
----------------------------

Marked for refinement due to distance to explicit features : 0 cells.
Marked for refinement due to refinement shells             : 0 cells.
Determined cells to refine in = 0.056 s
Selected for internal refinement : 27 cells (out of 199025)
Edge intersection testing:
    Number of edges             : 636949
    Number of edges to retest   : 1496
    Number of intersected edges : 34167
Refined mesh in = 0.193 s
After refinement shell refinement iteration 4 : cells:199214  faces:636949  points:239429
Cells per refinement level:
    0	40990
    1	56957
    2	5992
    3	14783
    4	80492
Balanced mesh in = 0.743 s
After balancing shell refinement iteration 4 : cells:199214  faces:636949  points:239441
Cells per refinement level:
    0	40990
    1	56957
    2	5992
    3	14783
    4	80492

Shell refinement iteration 5
----------------------------

Marked for refinement due to distance to explicit features : 0 cells.
Marked for refinement due to refinement shells             : 0 cells.
Determined cells to refine in = 0.06 s
Selected for internal refinement : 36 cells (out of 199214)
Edge intersection testing:
    Number of edges             : 637768
    Number of edges to retest   : 1984
    Number of intersected edges : 34197
Refined mesh in = 0.18 s
After refinement shell refinement iteration 5 : cells:199466  faces:637768  points:239757
Cells per refinement level:
    0	40955
    1	57237
    2	5991
    3	14791
    4	80492
Balanced mesh in = 0.771 s
After balancing shell refinement iteration 5 : cells:199466  faces:637768  points:239775
Cells per refinement level:
    0	40955
    1	57237
    2	5991
    3	14791
    4	80492

Shell refinement iteration 6
----------------------------

Marked for refinement due to distance to explicit features : 0 cells.
Marked for refinement due to refinement shells             : 0 cells.
Determined cells to refine in = 0.06 s
Selected for internal refinement : 32 cells (out of 199466)
Edge intersection testing:
    Number of edges             : 638491
    Number of edges to retest   : 1889
    Number of intersected edges : 34224
Refined mesh in = 0.289 s
After refinement shell refinement iteration 6 : cells:199690  faces:638491  points:240050
Cells per refinement level:
    0	40924
    1	57485
    2	5991
    3	14790
    4	80500
Balanced mesh in = 1.145 s
After balancing shell refinement iteration 6 : cells:199690  faces:638491  points:240055
Cells per refinement level:
    0	40924
    1	57485
    2	5991
    3	14790
    4	80500

Shell refinement iteration 7
----------------------------

Marked for refinement due to distance to explicit features : 0 cells.
Marked for refinement due to refinement shells             : 0 cells.
Determined cells to refine in = 0.075 s
Selected for internal refinement : 29 cells (out of 199690)
Edge intersection testing:
    Number of edges             : 639148
    Number of edges to retest   : 1749
    Number of intersected edges : 34248
Refined mesh in = 0.33 s
After refinement shell refinement iteration 7 : cells:199893  faces:639148  points:240306
Cells per refinement level:
    0	40896
    1	57709
    2	5991
    3	14789
    4	80508
Balanced mesh in = 0.952 s
After balancing shell refinement iteration 7 : cells:199893  faces:639148  points:240315
Cells per refinement level:
    0	40896
    1	57709
    2	5991
    3	14789
    4	80508

Shell refinement iteration 8
----------------------------

Marked for refinement due to distance to explicit features : 0 cells.
Marked for refinement due to refinement shells             : 0 cells.
Determined cells to refine in = 0.077 s
Selected for internal refinement : 30 cells (out of 199893)
Edge intersection testing:
    Number of edges             : 639826
    Number of edges to retest   : 1860
    Number of intersected edges : 34272
Refined mesh in = 0.236 s
After refinement shell refinement iteration 8 : cells:200103  faces:639826  points:240573
Cells per refinement level:
    0	40868
    1	57933
    2	5991
    3	14787
    4	80524
Balanced mesh in = 1.237 s
After balancing shell refinement iteration 8 : cells:200103  faces:639826  points:240581
Cells per refinement level:
    0	40868
    1	57933
    2	5991
    3	14787
    4	80524

Shell refinement iteration 9
----------------------------

Marked for refinement due to distance to explicit features : 0 cells.
Marked for refinement due to refinement shells             : 0 cells.
Determined cells to refine in = 0.115 s
Selected for internal refinement : 30 cells (out of 200103)
Edge intersection testing:
    Number of edges             : 640504
    Number of edges to retest   : 1848
    Number of intersected edges : 34296
Refined mesh in = 0.363 s
After refinement shell refinement iteration 9 : cells:200313  faces:640504  points:240839
Cells per refinement level:
    0	40840
    1	58156
    2	5998
    3	14795
    4	80524
Balanced mesh in = 1.16 s
After balancing shell refinement iteration 9 : cells:200313  faces:640504  points:240842
Cells per refinement level:
    0	40840
    1	58156
    2	5998
    3	14795
    4	80524

Shell refinement iteration 10
----------------------------

Marked for refinement due to distance to explicit features : 0 cells.
Marked for refinement due to refinement shells             : 0 cells.
Determined cells to refine in = 0.099 s
Selected for internal refinement : 28 cells (out of 200313)
Edge intersection testing:
    Number of edges             : 641140
    Number of edges to retest   : 1644
    Number of intersected edges : 34320
Refined mesh in = 0.295 s
After refinement shell refinement iteration 10 : cells:200509  faces:641140  points:241086
Cells per refinement level:
    0	40812
    1	58380
    2	5998
    3	14795
    4	80524
Balanced mesh in = 0.946 s
After balancing shell refinement iteration 10 : cells:200509  faces:641140  points:241091
Cells per refinement level:
    0	40812
    1	58380
    2	5998
    3	14795
    4	80524

Shell refinement iteration 11
----------------------------

Marked for refinement due to distance to explicit features : 0 cells.
Marked for refinement due to refinement shells             : 0 cells.
Determined cells to refine in = 0.069 s
Selected for internal refinement : 28 cells (out of 200509)
Edge intersection testing:
    Number of edges             : 641776
    Number of edges to retest   : 1644
    Number of intersected edges : 34344
Refined mesh in = 0.21 s
After refinement shell refinement iteration 11 : cells:200705  faces:641776  points:241335
Cells per refinement level:
    0	40784
    1	58604
    2	5998
    3	14795
    4	80524
Balanced mesh in = 0.912 s
After balancing shell refinement iteration 11 : cells:200705  faces:641776  points:241338
Cells per refinement level:
    0	40784
    1	58604
    2	5998
    3	14795
    4	80524

Shell refinement iteration 12
----------------------------

Marked for refinement due to distance to explicit features : 0 cells.
Marked for refinement due to refinement shells             : 0 cells.
Determined cells to refine in = 0.07 s
Selected for internal refinement : 29 cells (out of 200705)
Edge intersection testing:
    Number of edges             : 642433
    Number of edges to retest   : 1752
    Number of intersected edges : 34368
Refined mesh in = 0.307 s
After refinement shell refinement iteration 12 : cells:200908  faces:642433  points:241589
Cells per refinement level:
    0	40756
    1	58828
    2	5998
    3	14794
    4	80532
Balanced mesh in = 0.974 s
After balancing shell refinement iteration 12 : cells:200908  faces:642433  points:241592
Cells per refinement level:
    0	40756
    1	58828
    2	5998
    3	14794
    4	80532

Shell refinement iteration 13
----------------------------

Marked for refinement due to distance to explicit features : 0 cells.
Marked for refinement due to refinement shells             : 0 cells.
Determined cells to refine in = 0.07 s
Selected for internal refinement : 32 cells (out of 200908)
Edge intersection testing:
    Number of edges             : 643147
    Number of edges to retest   : 2091
    Number of intersected edges : 34392
Refined mesh in = 0.207 s
After refinement shell refinement iteration 13 : cells:201132  faces:643147  points:241858
Cells per refinement level:
    0	40728
    1	59052
    2	5998
    3	14790
    4	80564
Balanced mesh in = 0.874 s
After balancing shell refinement iteration 13 : cells:201132  faces:643147  points:241860
Cells per refinement level:
    0	40728
    1	59052
    2	5998
    3	14790
    4	80564

Shell refinement iteration 14
----------------------------

Marked for refinement due to distance to explicit features : 0 cells.
Marked for refinement due to refinement shells             : 0 cells.
Determined cells to refine in = 0.061 s
Selected for internal refinement : 32 cells (out of 201132)
Edge intersection testing:
    Number of edges             : 643867
    Number of edges to retest   : 2058
    Number of intersected edges : 34416
Refined mesh in = 0.214 s
After refinement shell refinement iteration 14 : cells:201356  faces:643867  points:242132
Cells per refinement level:
    0	40700
    1	59275
    2	6004
    3	14805
    4	80572
Balanced mesh in = 0.869 s
After balancing shell refinement iteration 14 : cells:201356  faces:643867  points:242133
Cells per refinement level:
    0	40700
    1	59275
    2	6004
    3	14805
    4	80572

Shell refinement iteration 15
----------------------------

Marked for refinement due to distance to explicit features : 0 cells.
Marked for refinement due to refinement shells             : 0 cells.
Determined cells to refine in = 0.064 s
Selected for internal refinement : 31 cells (out of 201356)
Edge intersection testing:
    Number of edges             : 644566
    Number of edges to retest   : 1930
    Number of intersected edges : 34440
Refined mesh in = 0.212 s
After refinement shell refinement iteration 15 : cells:201573  faces:644566  points:242398
Cells per refinement level:
    0	40672
    1	59496
    2	6028
    3	14805
    4	80572
Balanced mesh in = 0.806 s
After balancing shell refinement iteration 15 : cells:201573  faces:644566  points:242403
Cells per refinement level:
    0	40672
    1	59496
    2	6028
    3	14805
    4	80572

Shell refinement iteration 16
----------------------------

Marked for refinement due to distance to explicit features : 0 cells.
Marked for refinement due to refinement shells             : 0 cells.
Determined cells to refine in = 0.061 s
Selected for internal refinement : 28 cells (out of 201573)
Edge intersection testing:
    Number of edges             : 645202
    Number of edges to retest   : 1644
    Number of intersected edges : 34464
Refined mesh in = 0.187 s
After refinement shell refinement iteration 16 : cells:201769  faces:645202  points:242647
Cells per refinement level:
    0	40644
    1	59720
    2	6028
    3	14805
    4	80572
Balanced mesh in = 0.798 s
After balancing shell refinement iteration 16 : cells:201769  faces:645202  points:242653
Cells per refinement level:
    0	40644
    1	59720
    2	6028
    3	14805
    4	80572

Shell refinement iteration 17
----------------------------

Marked for refinement due to distance to explicit features : 0 cells.
Marked for refinement due to refinement shells             : 0 cells.
Determined cells to refine in = 0.061 s
Selected for internal refinement : 29 cells (out of 201769)
Edge intersection testing:
    Number of edges             : 645859
    Number of edges to retest   : 1752
    Number of intersected edges : 34488
Refined mesh in = 0.193 s
After refinement shell refinement iteration 17 : cells:201972  faces:645859  points:242904
Cells per refinement level:
    0	40616
    1	59944
    2	6028
    3	14804
    4	80580
Balanced mesh in = 0.867 s
After balancing shell refinement iteration 17 : cells:201972  faces:645859  points:242905
Cells per refinement level:
    0	40616
    1	59944
    2	6028
    3	14804
    4	80580

Shell refinement iteration 18
----------------------------

Marked for refinement due to distance to explicit features : 0 cells.
Marked for refinement due to refinement shells             : 0 cells.
Determined cells to refine in = 0.06 s
Selected for internal refinement : 29 cells (out of 201972)
Edge intersection testing:
    Number of edges             : 646516
    Number of edges to retest   : 1752
    Number of intersected edges : 34512
Refined mesh in = 0.192 s
After refinement shell refinement iteration 18 : cells:202175  faces:646516  points:243156
Cells per refinement level:
    0	40588
    1	60168
    2	6028
    3	14803
    4	80588
Balanced mesh in = 0.794 s
After balancing shell refinement iteration 18 : cells:202175  faces:646516  points:243158
Cells per refinement level:
    0	40588
    1	60168
    2	6028
    3	14803
    4	80588

Shell refinement iteration 19
----------------------------

Marked for refinement due to distance to explicit features : 0 cells.
Marked for refinement due to refinement shells             : 0 cells.
Determined cells to refine in = 0.063 s
Selected for internal refinement : 31 cells (out of 202175)
Edge intersection testing:
    Number of edges             : 647215
    Number of edges to retest   : 1962
    Number of intersected edges : 34536
Refined mesh in = 0.199 s
After refinement shell refinement iteration 19 : cells:202392  faces:647215  points:243423
Cells per refinement level:
    0	40560
    1	60392
    2	6028
    3	14800
    4	80612
Balanced mesh in = 0.824 s
After balancing shell refinement iteration 19 : cells:202392  faces:647215  points:243429
Cells per refinement level:
    0	40560
    1	60392
    2	6028
    3	14800
    4	80612

Shell refinement iteration 20
----------------------------

Marked for refinement due to distance to explicit features : 0 cells.
Marked for refinement due to refinement shells             : 0 cells.
Determined cells to refine in = 0.076 s
Selected for internal refinement : 28 cells (out of 202392)
Edge intersection testing:
    Number of edges             : 647851
    Number of edges to retest   : 1644
    Number of intersected edges : 34560
Refined mesh in = 0.205 s
After refinement shell refinement iteration 20 : cells:202588  faces:647851  points:243673
Cells per refinement level:
    0	40532
    1	60616
    2	6028
    3	14800
    4	80612
Balanced mesh in = 0.963 s
After balancing shell refinement iteration 20 : cells:202588  faces:647851  points:243677
Cells per refinement level:
    0	40532
    1	60616
    2	6028
    3	14800
    4	80612

Shell refinement iteration 21
----------------------------

Marked for refinement due to distance to explicit features : 0 cells.
Marked for refinement due to refinement shells             : 0 cells.
Determined cells to refine in = 0.074 s
Selected for internal refinement : 28 cells (out of 202588)
Edge intersection testing:
    Number of edges             : 648487
    Number of edges to retest   : 1644
    Number of intersected edges : 34584
Refined mesh in = 0.212 s
After refinement shell refinement iteration 21 : cells:202784  faces:648487  points:243921
Cells per refinement level:
    0	40504
    1	60840
    2	6028
    3	14800
    4	80612
Balanced mesh in = 0.815 s
After balancing shell refinement iteration 21 : cells:202784  faces:648487  points:243922
Cells per refinement level:
    0	40504
    1	60840
    2	6028
    3	14800
    4	80612

Shell refinement iteration 22
----------------------------

Marked for refinement due to distance to explicit features : 0 cells.
Marked for refinement due to refinement shells             : 0 cells.
Determined cells to refine in = 0.063 s
Selected for internal refinement : 29 cells (out of 202784)
Edge intersection testing:
    Number of edges             : 649144
    Number of edges to retest   : 1749
    Number of intersected edges : 34608
Refined mesh in = 0.201 s
After refinement shell refinement iteration 22 : cells:202987  faces:649144  points:244173
Cells per refinement level:
    0	40476
    1	61063
    2	6036
    3	14800
    4	80612
Balanced mesh in = 0.803 s
After balancing shell refinement iteration 22 : cells:202987  faces:649144  points:244178
Cells per refinement level:
    0	40476
    1	61063
    2	6036
    3	14800
    4	80612

Shell refinement iteration 23
----------------------------

Marked for refinement due to distance to explicit features : 0 cells.
Marked for refinement due to refinement shells             : 0 cells.
Determined cells to refine in = 0.066 s
Selected for internal refinement : 28 cells (out of 202987)
Edge intersection testing:
    Number of edges             : 649780
    Number of edges to retest   : 1644
    Number of intersected edges : 34632
Refined mesh in = 0.201 s
After refinement shell refinement iteration 23 : cells:203183  faces:649780  points:244422
Cells per refinement level:
    0	40448
    1	61287
    2	6036
    3	14800
    4	80612
Balanced mesh in = 0.811 s
After balancing shell refinement iteration 23 : cells:203183  faces:649780  points:244426
Cells per refinement level:
    0	40448
    1	61287
    2	6036
    3	14800
    4	80612

Shell refinement iteration 24
----------------------------

Marked for refinement due to distance to explicit features : 0 cells.
Marked for refinement due to refinement shells             : 0 cells.
Determined cells to refine in = 0.06 s
Selected for internal refinement : 28 cells (out of 203183)
Edge intersection testing:
    Number of edges             : 650416
    Number of edges to retest   : 1644
    Number of intersected edges : 34656
Refined mesh in = 0.191 s
After refinement shell refinement iteration 24 : cells:203379  faces:650416  points:244670
Cells per refinement level:
    0	40420
    1	61511
    2	6036
    3	14800
    4	80612
Balanced mesh in = 0.813 s
After balancing shell refinement iteration 24 : cells:203379  faces:650416  points:244671
Cells per refinement level:
    0	40420
    1	61511
    2	6036
    3	14800
    4	80612

Shell refinement iteration 25
----------------------------

Marked for refinement due to distance to explicit features : 0 cells.
Marked for refinement due to refinement shells             : 0 cells.
Determined cells to refine in = 0.061 s
Selected for internal refinement : 30 cells (out of 203379)
Edge intersection testing:
    Number of edges             : 651094
    Number of edges to retest   : 1860
    Number of intersected edges : 34680
Refined mesh in = 0.217 s
After refinement shell refinement iteration 25 : cells:203589  faces:651094  points:244929
Cells per refinement level:
    0	40392
    1	61734
    2	6044
    3	14799
    4	80620
Balanced mesh in = 0.836 s
After balancing shell refinement iteration 25 : cells:203589  faces:651094  points:244934
Cells per refinement level:
    0	40392
    1	61734
    2	6044
    3	14799
    4	80620

Shell refinement iteration 26
----------------------------

Marked for refinement due to distance to explicit features : 0 cells.
Marked for refinement due to refinement shells             : 0 cells.
Determined cells to refine in = 0.063 s
Selected for internal refinement : 29 cells (out of 203589)
Edge intersection testing:
    Number of edges             : 651751
    Number of edges to retest   : 1749
    Number of intersected edges : 34704
Refined mesh in = 0.213 s
After refinement shell refinement iteration 26 : cells:203792  faces:651751  points:245185
Cells per refinement level:
    0	40364
    1	61957
    2	6052
    3	14799
    4	80620
Balanced mesh in = 0.86 s
After balancing shell refinement iteration 26 : cells:203792  faces:651751  points:245185
Cells per refinement level:
    0	40364
    1	61957
    2	6052
    3	14799
    4	80620

Shell refinement iteration 27
----------------------------

Marked for refinement due to distance to explicit features : 0 cells.
Marked for refinement due to refinement shells             : 0 cells.
Determined cells to refine in = 0.063 s
Selected for internal refinement : 28 cells (out of 203792)
Edge intersection testing:
    Number of edges             : 652387
    Number of edges to retest   : 1644
    Number of intersected edges : 34728
Refined mesh in = 0.218 s
After refinement shell refinement iteration 27 : cells:203988  faces:652387  points:245429
Cells per refinement level:
    0	40336
    1	62181
    2	6052
    3	14799
    4	80620
Balanced mesh in = 0.827 s
After balancing shell refinement iteration 27 : cells:203988  faces:652387  points:245430
Cells per refinement level:
    0	40336
    1	62181
    2	6052
    3	14799
    4	80620

Shell refinement iteration 28
----------------------------

Marked for refinement due to distance to explicit features : 0 cells.
Marked for refinement due to refinement shells             : 0 cells.
Determined cells to refine in = 0.068 s
Selected for internal refinement : 31 cells (out of 203988)
Edge intersection testing:
    Number of edges             : 653086
    Number of edges to retest   : 1928
    Number of intersected edges : 34752
Refined mesh in = 0.207 s
After refinement shell refinement iteration 28 : cells:204205  faces:653086  points:245695
Cells per refinement level:
    0	40308
    1	62405
    2	6052
    3	14796
    4	80644
Balanced mesh in = 0.798 s
After balancing shell refinement iteration 28 : cells:204205  faces:653086  points:245696
Cells per refinement level:
    0	40308
    1	62405
    2	6052
    3	14796
    4	80644

Shell refinement iteration 29
----------------------------

Marked for refinement due to distance to explicit features : 0 cells.
Marked for refinement due to refinement shells             : 0 cells.
Determined cells to refine in = 0.06 s
Selected for internal refinement : 28 cells (out of 204205)
Edge intersection testing:
    Number of edges             : 653716
    Number of edges to retest   : 1670
    Number of intersected edges : 34776
Refined mesh in = 0.194 s
After refinement shell refinement iteration 29 : cells:204401  faces:653716  points:245932
Cells per refinement level:
    0	40280
    1	62629
    2	6052
    3	14796
    4	80644
Balanced mesh in = 0.802 s
After balancing shell refinement iteration 29 : cells:204401  faces:653716  points:245933
Cells per refinement level:
    0	40280
    1	62629
    2	6052
    3	14796
    4	80644

Shell refinement iteration 30
----------------------------

Marked for refinement due to distance to explicit features : 0 cells.
Marked for refinement due to refinement shells             : 0 cells.
Determined cells to refine in = 0.064 s
Selected for internal refinement : 26 cells (out of 204401)
Edge intersection testing:
    Number of edges             : 654304
    Number of edges to retest   : 1555
    Number of intersected edges : 34794
Refined mesh in = 0.2 s
After refinement shell refinement iteration 30 : cells:204583  faces:654304  points:246157
Cells per refinement level:
    0	40254
    1	62837
    2	6052
    3	14796
    4	80644
Balanced mesh in = 0.819 s
After balancing shell refinement iteration 30 : cells:204583  faces:654304  points:246160
Cells per refinement level:
    0	40254
    1	62837
    2	6052
    3	14796
    4	80644

Shell refinement iteration 31
----------------------------

Marked for refinement due to distance to explicit features : 0 cells.
Marked for refinement due to refinement shells             : 0 cells.
Determined cells to refine in = 0.061 s
Selected for internal refinement : 40 cells (out of 204583)
Edge intersection testing:
    Number of edges             : 655216
    Number of edges to retest   : 2231
    Number of intersected edges : 34818
Refined mesh in = 0.206 s
After refinement shell refinement iteration 31 : cells:204863  faces:655216  points:246513
Cells per refinement level:
    0	40215
    1	63149
    2	6052
    3	14795
    4	80652
Balanced mesh in = 0.784 s
After balancing shell refinement iteration 31 : cells:204863  faces:655216  points:246515
Cells per refinement level:
    0	40215
    1	63149
    2	6052
    3	14795
    4	80652

Shell refinement iteration 32
----------------------------

Marked for refinement due to distance to explicit features : 0 cells.
Marked for refinement due to refinement shells             : 0 cells.
Determined cells to refine in = 0.06 s
Selected for internal refinement : 42 cells (out of 204863)
Edge intersection testing:
    Number of edges             : 656167
    Number of edges to retest   : 2385
    Number of intersected edges : 34857
Refined mesh in = 0.209 s
After refinement shell refinement iteration 32 : cells:205157  faces:656167  points:246878
Cells per refinement level:
    0	40174
    1	63477
    2	6052
    3	14794
    4	80660
Balanced mesh in = 0.935 s
After balancing shell refinement iteration 32 : cells:205157  faces:656167  points:246878
Cells per refinement level:
    0	40174
    1	63477
    2	6052
    3	14794
    4	80660

Shell refinement iteration 33
----------------------------

Marked for refinement due to distance to explicit features : 0 cells.
Marked for refinement due to refinement shells             : 0 cells.
Determined cells to refine in = 0.063 s
Selected for internal refinement : 38 cells (out of 205157)
Edge intersection testing:
    Number of edges             : 657025
    Number of edges to retest   : 2330
    Number of intersected edges : 34887
Refined mesh in = 0.198 s
After refinement shell refinement iteration 33 : cells:205423  faces:657025  points:247204
Cells per refinement level:
    0	40139
    1	63757
    2	6052
    3	14791
    4	80684
Balanced mesh in = 0.825 s
After balancing shell refinement iteration 33 : cells:205423  faces:657025  points:247208
Cells per refinement level:
    0	40139
    1	63757
    2	6052
    3	14791
    4	80684

Shell refinement iteration 34
----------------------------

Marked for refinement due to distance to explicit features : 0 cells.
Marked for refinement due to refinement shells             : 0 cells.
Determined cells to refine in = 0.063 s
Selected for internal refinement : 36 cells (out of 205423)
Edge intersection testing:
    Number of edges             : 657841
    Number of edges to retest   : 2160
    Number of intersected edges : 34917
Refined mesh in = 0.208 s
After refinement shell refinement iteration 34 : cells:205675  faces:657841  points:247520
Cells per refinement level:
    0	40104
    1	64036
    2	6060
    3	14791
    4	80684
Balanced mesh in = 0.82 s
After balancing shell refinement iteration 34 : cells:205675  faces:657841  points:247525
Cells per refinement level:
    0	40104
    1	64036
    2	6060
    3	14791
    4	80684

Shell refinement iteration 35
----------------------------

Marked for refinement due to distance to explicit features : 0 cells.
Marked for refinement due to refinement shells             : 0 cells.
Determined cells to refine in = 0.061 s
Selected for internal refinement : 41 cells (out of 205675)
Edge intersection testing:
    Number of edges             : 658765
    Number of edges to retest   : 2624
    Number of intersected edges : 34947
Refined mesh in = 0.208 s
After refinement shell refinement iteration 35 : cells:205962  faces:658765  points:247875
Cells per refinement level:
    0	40069
    1	64315
    2	6068
    3	14786
    4	80724
Balanced mesh in = 0.837 s
After balancing shell refinement iteration 35 : cells:205962  faces:658765  points:247875
Cells per refinement level:
    0	40069
    1	64315
    2	6068
    3	14786
    4	80724

Shell refinement iteration 36
----------------------------

Marked for refinement due to distance to explicit features : 0 cells.
Marked for refinement due to refinement shells             : 0 cells.
Determined cells to refine in = 0.064 s
Selected for internal refinement : 37 cells (out of 205962)
Edge intersection testing:
    Number of edges             : 659602
    Number of edges to retest   : 2248
    Number of intersected edges : 34977
Refined mesh in = 0.208 s
After refinement shell refinement iteration 36 : cells:206221  faces:659602  points:248194
Cells per refinement level:
    0	40034
    1	64595
    2	6068
    3	14784
    4	80740
Balanced mesh in = 0.894 s
After balancing shell refinement iteration 36 : cells:206221  faces:659602  points:248194
Cells per refinement level:
    0	40034
    1	64595
    2	6068
    3	14784
    4	80740

Shell refinement iteration 37
----------------------------

Marked for refinement due to distance to explicit features : 0 cells.
Marked for refinement due to refinement shells             : 0 cells.
Determined cells to refine in = 0.073 s
Selected for internal refinement : 36 cells (out of 206221)
Edge intersection testing:
    Number of edges             : 660418
    Number of edges to retest   : 2166
    Number of intersected edges : 35007
Refined mesh in = 0.206 s
After refinement shell refinement iteration 37 : cells:206473  faces:660418  points:248506
Cells per refinement level:
    0	39999
    1	64875
    2	6068
    3	14783
    4	80748
Balanced mesh in = 0.899 s
After balancing shell refinement iteration 37 : cells:206473  faces:660418  points:248506
Cells per refinement level:
    0	39999
    1	64875
    2	6068
    3	14783
    4	80748

Shell refinement iteration 38
----------------------------

Marked for refinement due to distance to explicit features : 0 cells.
Marked for refinement due to refinement shells             : 0 cells.
Determined cells to refine in = 0.079 s
Selected for internal refinement : 36 cells (out of 206473)
Edge intersection testing:
    Number of edges             : 661234
    Number of edges to retest   : 2163
    Number of intersected edges : 35037
Refined mesh in = 0.237 s
After refinement shell refinement iteration 38 : cells:206725  faces:661234  points:248818
Cells per refinement level:
    0	39964
    1	65155
    2	6068
    3	14782
    4	80756
Balanced mesh in = 0.929 s
After balancing shell refinement iteration 38 : cells:206725  faces:661234  points:248823
Cells per refinement level:
    0	39964
    1	65155
    2	6068
    3	14782
    4	80756

Shell refinement iteration 39
----------------------------

Marked for refinement due to distance to explicit features : 0 cells.
Marked for refinement due to refinement shells             : 0 cells.
Determined cells to refine in = 0.069 s
Selected for internal refinement : 35 cells (out of 206725)
Edge intersection testing:
    Number of edges             : 662029
    Number of edges to retest   : 2055
    Number of intersected edges : 35067
Refined mesh in = 0.203 s
After refinement shell refinement iteration 39 : cells:206970  faces:662029  points:249128
Cells per refinement level:
    0	39929
    1	65435
    2	6068
    3	14782
    4	80756
Balanced mesh in = 0.872 s
After balancing shell refinement iteration 39 : cells:206970  faces:662029  points:249128
Cells per refinement level:
    0	39929
    1	65435
    2	6068
    3	14782
    4	80756

Shell refinement iteration 40
----------------------------

Marked for refinement due to distance to explicit features : 0 cells.
Marked for refinement due to refinement shells             : 0 cells.
Determined cells to refine in = 0.068 s
Selected for internal refinement : 35 cells (out of 206970)
Edge intersection testing:
    Number of edges             : 662824
    Number of edges to retest   : 2055
    Number of intersected edges : 35097
Refined mesh in = 0.219 s
After refinement shell refinement iteration 40 : cells:207215  faces:662824  points:249433
Cells per refinement level:
    0	39894
    1	65715
    2	6068
    3	14782
    4	80756
Balanced mesh in = 0.886 s
After balancing shell refinement iteration 40 : cells:207215  faces:662824  points:249436
Cells per refinement level:
    0	39894
    1	65715
    2	6068
    3	14782
    4	80756

Shell refinement iteration 41
----------------------------

Marked for refinement due to distance to explicit features : 0 cells.
Marked for refinement due to refinement shells             : 0 cells.
Determined cells to refine in = 0.065 s
Selected for internal refinement : 35 cells (out of 207215)
Edge intersection testing:
    Number of edges             : 663619
    Number of edges to retest   : 2055
    Number of intersected edges : 35127
Refined mesh in = 0.201 s
After refinement shell refinement iteration 41 : cells:207460  faces:663619  points:249741
Cells per refinement level:
    0	39859
    1	65995
    2	6068
    3	14782
    4	80756
Balanced mesh in = 0.962 s
After balancing shell refinement iteration 41 : cells:207460  faces:663619  points:249741
Cells per refinement level:
    0	39859
    1	65995
    2	6068
    3	14782
    4	80756

Shell refinement iteration 42
----------------------------

Marked for refinement due to distance to explicit features : 0 cells.
Marked for refinement due to refinement shells             : 0 cells.
Determined cells to refine in = 0.072 s
Selected for internal refinement : 36 cells (out of 207460)
Edge intersection testing:
    Number of edges             : 664435
    Number of edges to retest   : 2175
    Number of intersected edges : 35157
Refined mesh in = 0.232 s
After refinement shell refinement iteration 42 : cells:207712  faces:664435  points:250053
Cells per refinement level:
    0	39824
    1	66274
    2	6076
    3	14782
    4	80756
Balanced mesh in = 0.877 s
After balancing shell refinement iteration 42 : cells:207712  faces:664435  points:250054
Cells per refinement level:
    0	39824
    1	66274
    2	6076
    3	14782
    4	80756

Shell refinement iteration 43
----------------------------

Marked for refinement due to distance to explicit features : 0 cells.
Marked for refinement due to refinement shells             : 0 cells.
Determined cells to refine in = 0.08 s
Selected for internal refinement : 35 cells (out of 207712)
Edge intersection testing:
    Number of edges             : 665218
    Number of edges to retest   : 2107
    Number of intersected edges : 35187
Refined mesh in = 0.216 s
After refinement shell refinement iteration 43 : cells:207957  faces:665218  points:250343
Cells per refinement level:
    0	39789
    1	66554
    2	6076
    3	14782
    4	80756
Balanced mesh in = 0.945 s
After balancing shell refinement iteration 43 : cells:207957  faces:665218  points:250347
Cells per refinement level:
    0	39789
    1	66554
    2	6076
    3	14782
    4	80756

Shell refinement iteration 44
----------------------------

Marked for refinement due to distance to explicit features : 0 cells.
Marked for refinement due to refinement shells             : 0 cells.
Determined cells to refine in = 0.081 s
Selected for internal refinement : 31 cells (out of 207957)
Edge intersection testing:
    Number of edges             : 665917
    Number of edges to retest   : 1877
    Number of intersected edges : 35205
Refined mesh in = 0.218 s
After refinement shell refinement iteration 44 : cells:208174  faces:665917  points:250612
Cells per refinement level:
    0	39758
    1	66802
    2	6076
    3	14782
    4	80756
Balanced mesh in = 0.922 s
After balancing shell refinement iteration 44 : cells:208174  faces:665917  points:250612
Cells per refinement level:
    0	39758
    1	66802
    2	6076
    3	14782
    4	80756

Shell refinement iteration 45
----------------------------

Marked for refinement due to distance to explicit features : 0 cells.
Marked for refinement due to refinement shells             : 0 cells.
Determined cells to refine in = 0.078 s
Selected for internal refinement : 61 cells (out of 208174)
Edge intersection testing:
    Number of edges             : 667312
    Number of edges to retest   : 3201
    Number of intersected edges : 35241
Refined mesh in = 0.275 s
After refinement shell refinement iteration 45 : cells:208601  faces:667312  points:251155
Cells per refinement level:
    0	39697
    1	67290
    2	6076
    3	14782
    4	80756
Balanced mesh in = 1.103 s
After balancing shell refinement iteration 45 : cells:208601  faces:667312  points:251157
Cells per refinement level:
    0	39697
    1	67290
    2	6076
    3	14782
    4	80756

Shell refinement iteration 46
----------------------------

Marked for refinement due to distance to explicit features : 0 cells.
Marked for refinement due to refinement shells             : 0 cells.
Determined cells to refine in = 0.093 s
Selected for internal refinement : 63 cells (out of 208601)
Edge intersection testing:
    Number of edges             : 668731
    Number of edges to retest   : 3568
    Number of intersected edges : 35295
Refined mesh in = 0.303 s
After refinement shell refinement iteration 46 : cells:209042  faces:668731  points:251694
Cells per refinement level:
    0	39636
    1	67778
    2	6075
    3	14789
    4	80764
Balanced mesh in = 1.146 s
After balancing shell refinement iteration 46 : cells:209042  faces:668731  points:251695
Cells per refinement level:
    0	39636
    1	67778
    2	6075
    3	14789
    4	80764

Shell refinement iteration 47
----------------------------

Marked for refinement due to distance to explicit features : 0 cells.
Marked for refinement due to refinement shells             : 0 cells.
Determined cells to refine in = 0.075 s
Selected for internal refinement : 52 cells (out of 209042)
Edge intersection testing:
    Number of edges             : 669907
    Number of edges to retest   : 3130
    Number of intersected edges : 35337
Refined mesh in = 0.261 s
After refinement shell refinement iteration 47 : cells:209406  faces:669907  points:252143
Cells per refinement level:
    0	39585
    1	68186
    2	6075
    3	14788
    4	80772
Balanced mesh in = 1.042 s
After balancing shell refinement iteration 47 : cells:209406  faces:669907  points:252144
Cells per refinement level:
    0	39585
    1	68186
    2	6075
    3	14788
    4	80772

Shell refinement iteration 48
----------------------------

Marked for refinement due to distance to explicit features : 0 cells.
Marked for refinement due to refinement shells             : 0 cells.
Determined cells to refine in = 0.068 s
Selected for internal refinement : 53 cells (out of 209406)
Edge intersection testing:
    Number of edges             : 671107
    Number of edges to retest   : 3196
    Number of intersected edges : 35379
Refined mesh in = 0.224 s
After refinement shell refinement iteration 48 : cells:209777  faces:671107  points:252602
Cells per refinement level:
    0	39533
    1	68602
    2	6075
    3	14787
    4	80780
Balanced mesh in = 0.879 s
After balancing shell refinement iteration 48 : cells:209777  faces:671107  points:252602
Cells per refinement level:
    0	39533
    1	68602
    2	6075
    3	14787
    4	80780

Shell refinement iteration 49
----------------------------

Marked for refinement due to distance to explicit features : 0 cells.
Marked for refinement due to refinement shells             : 0 cells.
Determined cells to refine in = 0.065 s
Selected for internal refinement : 52 cells (out of 209777)
Edge intersection testing:
    Number of edges             : 672280
    Number of edges to retest   : 3132
    Number of intersected edges : 35421
Refined mesh in = 0.221 s
After refinement shell refinement iteration 49 : cells:210141  faces:672280  points:253047
Cells per refinement level:
    0	39482
    1	69010
    2	6075
    3	14786
    4	80788
Balanced mesh in = 0.843 s
After balancing shell refinement iteration 49 : cells:210141  faces:672280  points:253048
Cells per refinement level:
    0	39482
    1	69010
    2	6075
    3	14786
    4	80788

Shell refinement iteration 50
----------------------------

Marked for refinement due to distance to explicit features : 0 cells.
Marked for refinement due to refinement shells             : 0 cells.
Determined cells to refine in = 0.064 s
Selected for internal refinement : 51 cells (out of 210141)
Edge intersection testing:
    Number of edges             : 673435
    Number of edges to retest   : 3019
    Number of intersected edges : 35463
Refined mesh in = 0.213 s
After refinement shell refinement iteration 50 : cells:210498  faces:673435  points:253489
Cells per refinement level:
    0	39431
    1	69418
    2	6075
    3	14786
    4	80788
Balanced mesh in = 1.079 s
After balancing shell refinement iteration 50 : cells:210498  faces:673435  points:253491
Cells per refinement level:
    0	39431
    1	69418
    2	6075
    3	14786
    4	80788

Shell refinement iteration 51
----------------------------

Marked for refinement due to distance to explicit features : 0 cells.
Marked for refinement due to refinement shells             : 0 cells.
Determined cells to refine in = 0.07 s
Selected for internal refinement : 69 cells (out of 210498)
Edge intersection testing:
    Number of edges             : 675025
    Number of edges to retest   : 3746
    Number of intersected edges : 35523
Refined mesh in = 0.242 s
After refinement shell refinement iteration 51 : cells:210981  faces:675025  points:254119
Cells per refinement level:
    0	39362
    1	69970
    2	6075
    3	14786
    4	80788
Balanced mesh in = 1.047 s
After balancing shell refinement iteration 51 : cells:210981  faces:675025  points:254119
Cells per refinement level:
    0	39362
    1	69970
    2	6075
    3	14786
    4	80788

Shell refinement iteration 52
----------------------------

Marked for refinement due to distance to explicit features : 0 cells.
Marked for refinement due to refinement shells             : 0 cells.
Determined cells to refine in = 0.077 s
Selected for internal refinement : 71 cells (out of 210981)
Edge intersection testing:
    Number of edges             : 676627
    Number of edges to retest   : 4119
    Number of intersected edges : 35577
Refined mesh in = 0.266 s
After refinement shell refinement iteration 52 : cells:211478  faces:676627  points:254727
Cells per refinement level:
    0	39291
    1	70538
    2	6075
    3	14786
    4	80788
Balanced mesh in = 1.01 s
After balancing shell refinement iteration 52 : cells:211478  faces:676627  points:254727
Cells per refinement level:
    0	39291
    1	70538
    2	6075
    3	14786
    4	80788

Shell refinement iteration 53
----------------------------

Marked for refinement due to distance to explicit features : 0 cells.
Marked for refinement due to refinement shells             : 0 cells.
Determined cells to refine in = 0.066 s
Selected for internal refinement : 68 cells (out of 211478)
Edge intersection testing:
    Number of edges             : 678163
    Number of edges to retest   : 4085
    Number of intersected edges : 35631
Refined mesh in = 0.222 s
After refinement shell refinement iteration 53 : cells:211954  faces:678163  points:255311
Cells per refinement level:
    0	39224
    1	71073
    2	6083
    3	14786
    4	80788
Balanced mesh in = 1.007 s
After balancing shell refinement iteration 53 : cells:211954  faces:678163  points:255311
Cells per refinement level:
    0	39224
    1	71073
    2	6083
    3	14786
    4	80788

Shell refinement iteration 54
----------------------------

Marked for refinement due to distance to explicit features : 0 cells.
Marked for refinement due to refinement shells             : 0 cells.
Determined cells to refine in = 0.08 s
Selected for internal refinement : 70 cells (out of 211954)
Edge intersection testing:
    Number of edges             : 679741
    Number of edges to retest   : 4307
    Number of intersected edges : 35685
Refined mesh in = 0.246 s
After refinement shell refinement iteration 54 : cells:212444  faces:679741  points:255909
Cells per refinement level:
    0	39157
    1	71609
    2	6083
    3	14783
    4	80812
Balanced mesh in = 1.04 s
After balancing shell refinement iteration 54 : cells:212444  faces:679741  points:255912
Cells per refinement level:
    0	39157
    1	71609
    2	6083
    3	14783
    4	80812

Shell refinement iteration 55
----------------------------

Marked for refinement due to distance to explicit features : 0 cells.
Marked for refinement due to refinement shells             : 0 cells.
Determined cells to refine in = 0.083 s
Selected for internal refinement : 67 cells (out of 212444)
Edge intersection testing:
    Number of edges             : 681256
    Number of edges to retest   : 3983
    Number of intersected edges : 35739
Refined mesh in = 0.285 s
After refinement shell refinement iteration 55 : cells:212913  faces:681256  points:256489
Cells per refinement level:
    0	39090
    1	72145
    2	6083
    3	14783
    4	80812
Balanced mesh in = 1.025 s
After balancing shell refinement iteration 55 : cells:212913  faces:681256  points:256489
Cells per refinement level:
    0	39090
    1	72145
    2	6083
    3	14783
    4	80812

Shell refinement iteration 56
----------------------------

Marked for refinement due to distance to explicit features : 0 cells.
Marked for refinement due to refinement shells             : 0 cells.
Determined cells to refine in = 0.119 s
Selected for internal refinement : 73 cells (out of 212913)
Edge intersection testing:
    Number of edges             : 682903
    Number of edges to retest   : 4496
    Number of intersected edges : 35793
Refined mesh in = 0.357 s
After refinement shell refinement iteration 56 : cells:213424  faces:682903  points:257112
Cells per refinement level:
    0	39022
    1	72688
    2	6091
    3	14779
    4	80844
Balanced mesh in = 0.957 s
After balancing shell refinement iteration 56 : cells:213424  faces:682903  points:257115
Cells per refinement level:
    0	39022
    1	72688
    2	6091
    3	14779
    4	80844

Shell refinement iteration 57
----------------------------

Marked for refinement due to distance to explicit features : 0 cells.
Marked for refinement due to refinement shells             : 0 cells.
Determined cells to refine in = 0.07 s
Selected for internal refinement : 65 cells (out of 213424)
Edge intersection testing:
    Number of edges             : 684355
    Number of edges to retest   : 3870
    Number of intersected edges : 35844
Refined mesh in = 0.26 s
After refinement shell refinement iteration 57 : cells:213879  faces:684355  points:257653
Cells per refinement level:
    0	38957
    1	73208
    2	6091
    3	14779
    4	80844
Balanced mesh in = 1.075 s
After balancing shell refinement iteration 57 : cells:213879  faces:684355  points:257654
Cells per refinement level:
    0	38957
    1	73208
    2	6091
    3	14779
    4	80844

Shell refinement iteration 58
----------------------------

Marked for refinement due to distance to explicit features : 0 cells.
Marked for refinement due to refinement shells             : 0 cells.
Determined cells to refine in = 0.086 s
Selected for internal refinement : 60 cells (out of 213879)
Edge intersection testing:
    Number of edges             : 685699
    Number of edges to retest   : 3660
    Number of intersected edges : 35886
Refined mesh in = 0.288 s
After refinement shell refinement iteration 58 : cells:214299  faces:685699  points:258159
Cells per refinement level:
    0	38898
    1	73680
    2	6091
    3	14778
    4	80852
Balanced mesh in = 0.972 s
After balancing shell refinement iteration 58 : cells:214299  faces:685699  points:258159
Cells per refinement level:
    0	38898
    1	73680
    2	6091
    3	14778
    4	80852

Shell refinement iteration 59
----------------------------

Marked for refinement due to distance to explicit features : 0 cells.
Marked for refinement due to refinement shells             : 0 cells.
Determined cells to refine in = 0.065 s
Selected for internal refinement : 61 cells (out of 214299)
Edge intersection testing:
    Number of edges             : 687079
    Number of edges to retest   : 3595
    Number of intersected edges : 35934
Refined mesh in = 0.208 s
After refinement shell refinement iteration 59 : cells:214726  faces:687079  points:258685
Cells per refinement level:
    0	38837
    1	74168
    2	6091
    3	14778
    4	80852
Balanced mesh in = 0.938 s
After balancing shell refinement iteration 59 : cells:214726  faces:687079  points:258685
Cells per refinement level:
    0	38837
    1	74168
    2	6091
    3	14778
    4	80852

Shell refinement iteration 60
----------------------------

Marked for refinement due to distance to explicit features : 0 cells.
Marked for refinement due to refinement shells             : 0 cells.
Determined cells to refine in = 0.066 s
Selected for internal refinement : 59 cells (out of 214726)
Edge intersection testing:
    Number of edges             : 688414
    Number of edges to retest   : 3507
    Number of intersected edges : 35982
Refined mesh in = 0.205 s
After refinement shell refinement iteration 60 : cells:215139  faces:688414  points:259194
Cells per refinement level:
    0	38778
    1	74640
    2	6091
    3	14778
    4	80852
Balanced mesh in = 0.99 s
After balancing shell refinement iteration 60 : cells:215139  faces:688414  points:259195
Cells per refinement level:
    0	38778
    1	74640
    2	6091
    3	14778
    4	80852

Shell refinement iteration 61
----------------------------

Marked for refinement due to distance to explicit features : 0 cells.
Marked for refinement due to refinement shells             : 0 cells.
Determined cells to refine in = 0.077 s
Selected for internal refinement : 59 cells (out of 215139)
Edge intersection testing:
    Number of edges             : 689749
    Number of edges to retest   : 3453
    Number of intersected edges : 36030
Refined mesh in = 0.317 s
After refinement shell refinement iteration 61 : cells:215552  faces:689749  points:259704
Cells per refinement level:
    0	38719
    1	75112
    2	6091
    3	14778
    4	80852
Balanced mesh in = 0.948 s
After balancing shell refinement iteration 61 : cells:215552  faces:689749  points:259706
Cells per refinement level:
    0	38719
    1	75112
    2	6091
    3	14778
    4	80852

Shell refinement iteration 62
----------------------------

Marked for refinement due to distance to explicit features : 0 cells.
Marked for refinement due to refinement shells             : 0 cells.
Determined cells to refine in = 0.084 s
Selected for internal refinement : 53 cells (out of 215552)
Edge intersection testing:
    Number of edges             : 690922
    Number of edges to retest   : 3262
    Number of intersected edges : 36072
Refined mesh in = 0.249 s
After refinement shell refinement iteration 62 : cells:215923  faces:690922  points:260133
Cells per refinement level:
    0	38667
    1	75528
    2	6091
    3	14777
    4	80860
Balanced mesh in = 0.892 s
After balancing shell refinement iteration 62 : cells:215923  faces:690922  points:260133
Cells per refinement level:
    0	38667
    1	75528
    2	6091
    3	14777
    4	80860

Shell refinement iteration 63
----------------------------

Marked for refinement due to distance to explicit features : 0 cells.
Marked for refinement due to refinement shells             : 0 cells.
Determined cells to refine in = 0.072 s
Selected for internal refinement : 45 cells (out of 215923)
Edge intersection testing:
    Number of edges             : 691939
    Number of edges to retest   : 2679
    Number of intersected edges : 36108
Refined mesh in = 0.219 s
After refinement shell refinement iteration 63 : cells:216238  faces:691939  points:260520
Cells per refinement level:
    0	38622
    1	75888
    2	6091
    3	14777
    4	80860
Balanced mesh in = 0.977 s
After balancing shell refinement iteration 63 : cells:216238  faces:691939  points:260521
Cells per refinement level:
    0	38622
    1	75888
    2	6091
    3	14777
    4	80860

Shell refinement iteration 64
----------------------------

Marked for refinement due to distance to explicit features : 0 cells.
Marked for refinement due to refinement shells             : 0 cells.
Determined cells to refine in = 0.073 s
Selected for internal refinement : 45 cells (out of 216238)
Edge intersection testing:
    Number of edges             : 692956
    Number of edges to retest   : 2679
    Number of intersected edges : 36144
Refined mesh in = 0.243 s
After refinement shell refinement iteration 64 : cells:216553  faces:692956  points:260908
Cells per refinement level:
    0	38577
    1	76248
    2	6091
    3	14777
    4	80860
Balanced mesh in = 1.151 s
After balancing shell refinement iteration 64 : cells:216553  faces:692956  points:260908
Cells per refinement level:
    0	38577
    1	76248
    2	6091
    3	14777
    4	80860

Shell refinement iteration 65
----------------------------

Marked for refinement due to distance to explicit features : 0 cells.
Marked for refinement due to refinement shells             : 0 cells.
Determined cells to refine in = 0.108 s
Selected for internal refinement : 48 cells (out of 216553)
Edge intersection testing:
    Number of edges             : 694036
    Number of edges to retest   : 2983
    Number of intersected edges : 36180
Refined mesh in = 0.298 s
After refinement shell refinement iteration 65 : cells:216889  faces:694036  points:261316
Cells per refinement level:
    0	38532
    1	76608
    2	6091
    3	14774
    4	80884
Balanced mesh in = 1.035 s
After balancing shell refinement iteration 65 : cells:216889  faces:694036  points:261316
Cells per refinement level:
    0	38532
    1	76608
    2	6091
    3	14774
    4	80884

Shell refinement iteration 66
----------------------------

Marked for refinement due to distance to explicit features : 0 cells.
Marked for refinement due to refinement shells             : 0 cells.
Determined cells to refine in = 0.072 s
Selected for internal refinement : 46 cells (out of 216889)
Edge intersection testing:
    Number of edges             : 695074
    Number of edges to retest   : 2784
    Number of intersected edges : 36216
Refined mesh in = 0.281 s
After refinement shell refinement iteration 66 : cells:217211  faces:695074  points:261710
Cells per refinement level:
    0	38487
    1	76968
    2	6091
    3	14773
    4	80892
Balanced mesh in = 1.08 s
After balancing shell refinement iteration 66 : cells:217211  faces:695074  points:261710
Cells per refinement level:
    0	38487
    1	76968
    2	6091
    3	14773
    4	80892

Shell refinement iteration 67
----------------------------

Marked for refinement due to distance to explicit features : 0 cells.
Marked for refinement due to refinement shells             : 0 cells.
Determined cells to refine in = 0.08 s
Selected for internal refinement : 45 cells (out of 217211)
Edge intersection testing:
    Number of edges             : 696091
    Number of edges to retest   : 2679
    Number of intersected edges : 36252
Refined mesh in = 0.242 s
After refinement shell refinement iteration 67 : cells:217526  faces:696091  points:262097
Cells per refinement level:
    0	38442
    1	77328
    2	6091
    3	14773
    4	80892
Balanced mesh in = 0.88 s
After balancing shell refinement iteration 67 : cells:217526  faces:696091  points:262097
Cells per refinement level:
    0	38442
    1	77328
    2	6091
    3	14773
    4	80892

Shell refinement iteration 68
----------------------------

Marked for refinement due to distance to explicit features : 0 cells.
Marked for refinement due to refinement shells             : 0 cells.
Determined cells to refine in = 0.074 s
Selected for internal refinement : 45 cells (out of 217526)
Edge intersection testing:
    Number of edges             : 697108
    Number of edges to retest   : 2679
    Number of intersected edges : 36288
Refined mesh in = 0.241 s
After refinement shell refinement iteration 68 : cells:217841  faces:697108  points:262484
Cells per refinement level:
    0	38397
    1	77688
    2	6091
    3	14773
    4	80892
Balanced mesh in = 0.876 s
After balancing shell refinement iteration 68 : cells:217841  faces:697108  points:262485
Cells per refinement level:
    0	38397
    1	77688
    2	6091
    3	14773
    4	80892

Shell refinement iteration 69
----------------------------

Marked for refinement due to distance to explicit features : 0 cells.
Marked for refinement due to refinement shells             : 0 cells.
Determined cells to refine in = 0.07 s
Selected for internal refinement : 48 cells (out of 217841)
Edge intersection testing:
    Number of edges             : 698191
    Number of edges to retest   : 2967
    Number of intersected edges : 36324
Refined mesh in = 0.232 s
After refinement shell refinement iteration 69 : cells:218177  faces:698191  points:262896
Cells per refinement level:
    0	38352
    1	78048
    2	6091
    3	14770
    4	80916
Balanced mesh in = 1.045 s
After balancing shell refinement iteration 69 : cells:218177  faces:698191  points:262900
Cells per refinement level:
    0	38352
    1	78048
    2	6091
    3	14770
    4	80916

Shell refinement iteration 70
----------------------------

Marked for refinement due to distance to explicit features : 0 cells.
Marked for refinement due to refinement shells             : 0 cells.
Determined cells to refine in = 0.087 s
Selected for internal refinement : 45 cells (out of 218177)
Edge intersection testing:
    Number of edges             : 699202
    Number of edges to retest   : 2705
    Number of intersected edges : 36360
Refined mesh in = 0.277 s
After refinement shell refinement iteration 70 : cells:218492  faces:699202  points:263279
Cells per refinement level:
    0	38307
    1	78408
    2	6091
    3	14770
    4	80916
Balanced mesh in = 1.142 s
After balancing shell refinement iteration 70 : cells:218492  faces:699202  points:263279
Cells per refinement level:
    0	38307
    1	78408
    2	6091
    3	14770
    4	80916

Shell refinement iteration 71
----------------------------

Marked for refinement due to distance to explicit features : 0 cells.
Marked for refinement due to refinement shells             : 0 cells.
Determined cells to refine in = 0.083 s
Selected for internal refinement : 43 cells (out of 218492)
Edge intersection testing:
    Number of edges             : 700171
    Number of edges to retest   : 2590
    Number of intersected edges : 36390
Refined mesh in = 0.25 s
After refinement shell refinement iteration 71 : cells:218793  faces:700171  points:263646
Cells per refinement level:
    0	38264
    1	78752
    2	6091
    3	14770
    4	80916
Balanced mesh in = 1.086 s
After balancing shell refinement iteration 71 : cells:218793  faces:700171  points:263646
Cells per refinement level:
    0	38264
    1	78752
    2	6091
    3	14770
    4	80916

Shell refinement iteration 72
----------------------------

Marked for refinement due to distance to explicit features : 0 cells.
Marked for refinement due to refinement shells             : 0 cells.
Determined cells to refine in = 0.093 s
Selected for internal refinement : 58 cells (out of 218793)
Edge intersection testing:
    Number of edges             : 701488
    Number of edges to retest   : 3229
    Number of intersected edges : 36429
Refined mesh in = 0.298 s
After refinement shell refinement iteration 72 : cells:219199  faces:701488  points:264152
Cells per refinement level:
    0	38206
    1	79216
    2	6091
    3	14770
    4	80916
Balanced mesh in = 1.05 s
After balancing shell refinement iteration 72 : cells:219199  faces:701488  points:264153
Cells per refinement level:
    0	38206
    1	79216
    2	6091
    3	14770
    4	80916

Shell refinement iteration 73
----------------------------

Marked for refinement due to distance to explicit features : 0 cells.
Marked for refinement due to refinement shells             : 0 cells.
Determined cells to refine in = 0.08 s
Selected for internal refinement : 56 cells (out of 219199)
Edge intersection testing:
    Number of edges             : 702754
    Number of edges to retest   : 3238
    Number of intersected edges : 36477
Refined mesh in = 0.267 s
After refinement shell refinement iteration 73 : cells:219591  faces:702754  points:264635
Cells per refinement level:
    0	38150
    1	79664
    2	6091
    3	14770
    4	80916
Balanced mesh in = 0.964 s
After balancing shell refinement iteration 73 : cells:219591  faces:702754  points:264635
Cells per refinement level:
    0	38150
    1	79664
    2	6091
    3	14770
    4	80916

Shell refinement iteration 74
----------------------------

Marked for refinement due to distance to explicit features : 0 cells.
Marked for refinement due to refinement shells             : 0 cells.
Determined cells to refine in = 0.069 s
Selected for internal refinement : 53 cells (out of 219591)
Edge intersection testing:
    Number of edges             : 703948
    Number of edges to retest   : 3203
    Number of intersected edges : 36519
Refined mesh in = 0.234 s
After refinement shell refinement iteration 74 : cells:219962  faces:703948  points:265087
Cells per refinement level:
    0	38098
    1	80080
    2	6091
    3	14769
    4	80924
Balanced mesh in = 0.909 s
After balancing shell refinement iteration 74 : cells:219962  faces:703948  points:265089
Cells per refinement level:
    0	38098
    1	80080
    2	6091
    3	14769
    4	80924

Shell refinement iteration 75
----------------------------

Marked for refinement due to distance to explicit features : 0 cells.
Marked for refinement due to refinement shells             : 0 cells.
Determined cells to refine in = 0.07 s
Selected for internal refinement : 52 cells (out of 219962)
Edge intersection testing:
    Number of edges             : 705124
    Number of edges to retest   : 3090
    Number of intersected edges : 36561
Refined mesh in = 0.23 s
After refinement shell refinement iteration 75 : cells:220326  faces:705124  points:265537
Cells per refinement level:
    0	38046
    1	80496
    2	6091
    3	14769
    4	80924
Balanced mesh in = 0.882 s
After balancing shell refinement iteration 75 : cells:220326  faces:705124  points:265537
Cells per refinement level:
    0	38046
    1	80496
    2	6091
    3	14769
    4	80924

Shell refinement iteration 76
----------------------------

Marked for refinement due to distance to explicit features : 0 cells.
Marked for refinement due to refinement shells             : 0 cells.
Determined cells to refine in = 0.075 s
Selected for internal refinement : 52 cells (out of 220326)
Edge intersection testing:
    Number of edges             : 706300
    Number of edges to retest   : 3090
    Number of intersected edges : 36603
Refined mesh in = 0.227 s
After refinement shell refinement iteration 76 : cells:220690  faces:706300  points:265985
Cells per refinement level:
    0	37994
    1	80912
    2	6091
    3	14769
    4	80924
Balanced mesh in = 0.935 s
After balancing shell refinement iteration 76 : cells:220690  faces:706300  points:265985
Cells per refinement level:
    0	37994
    1	80912
    2	6091
    3	14769
    4	80924

Shell refinement iteration 77
----------------------------

Marked for refinement due to distance to explicit features : 0 cells.
Marked for refinement due to refinement shells             : 0 cells.
Determined cells to refine in = 0.073 s
Selected for internal refinement : 57 cells (out of 220690)
Edge intersection testing:
    Number of edges             : 707581
    Number of edges to retest   : 3578
    Number of intersected edges : 36645
Refined mesh in = 0.277 s
After refinement shell refinement iteration 77 : cells:221089  faces:707581  points:266468
Cells per refinement level:
    0	37942
    1	81327
    2	6099
    3	14765
    4	80956
Balanced mesh in = 0.869 s
After balancing shell refinement iteration 77 : cells:221089  faces:707581  points:266468
Cells per refinement level:
    0	37942
    1	81327
    2	6099
    3	14765
    4	80956

Shell refinement iteration 78
----------------------------

Marked for refinement due to distance to explicit features : 0 cells.
Marked for refinement due to refinement shells             : 0 cells.
Determined cells to refine in = 0.07 s
Selected for internal refinement : 57 cells (out of 221089)
Edge intersection testing:
    Number of edges             : 708862
    Number of edges to retest   : 3583
    Number of intersected edges : 36687
Refined mesh in = 0.245 s
After refinement shell refinement iteration 78 : cells:221488  faces:708862  points:266951
Cells per refinement level:
    0	37890
    1	81743
    2	6097
    3	14778
    4	80980
Balanced mesh in = 0.867 s
After balancing shell refinement iteration 78 : cells:221488  faces:708862  points:266951
Cells per refinement level:
    0	37890
    1	81743
    2	6097
    3	14778
    4	80980

Shell refinement iteration 79
----------------------------

Marked for refinement due to distance to explicit features : 0 cells.
Marked for refinement due to refinement shells             : 0 cells.
Determined cells to refine in = 0.076 s
Selected for internal refinement : 56 cells (out of 221488)
Edge intersection testing:
    Number of edges             : 710122
    Number of edges to retest   : 3510
    Number of intersected edges : 36729
Refined mesh in = 0.225 s
After refinement shell refinement iteration 79 : cells:221880  faces:710122  points:267427
Cells per refinement level:
    0	37838
    1	82156
    2	6121
    3	14777
    4	80988
Balanced mesh in = 0.884 s
After balancing shell refinement iteration 79 : cells:221880  faces:710122  points:267427
Cells per refinement level:
    0	37838
    1	82156
    2	6121
    3	14777
    4	80988

Shell refinement iteration 80
----------------------------

Marked for refinement due to distance to explicit features : 0 cells.
Marked for refinement due to refinement shells             : 0 cells.
Determined cells to refine in = 0.081 s
Selected for internal refinement : 53 cells (out of 221880)
Edge intersection testing:
    Number of edges             : 711319
    Number of edges to retest   : 3198
    Number of intersected edges : 36771
Refined mesh in = 0.231 s
After refinement shell refinement iteration 80 : cells:222251  faces:711319  points:267882
Cells per refinement level:
    0	37786
    1	82572
    2	6121
    3	14776
    4	80996
Balanced mesh in = 0.853 s
After balancing shell refinement iteration 80 : cells:222251  faces:711319  points:267882
Cells per refinement level:
    0	37786
    1	82572
    2	6121
    3	14776
    4	80996

Shell refinement iteration 81
----------------------------

Marked for refinement due to distance to explicit features : 0 cells.
Marked for refinement due to refinement shells             : 0 cells.
Determined cells to refine in = 0.068 s
Selected for internal refinement : 70 cells (out of 222251)
Edge intersection testing:
[...]
    faces with face twist < 0.01                           : 0
    faces on cells with determinant < 0.001                : 0
displacementMedialAxis : Iteration 4
Moving mesh using displacement scaling : min:0  max:1
Checking faces in error :
    non-orthogonality > 65  degrees                        : 0
    faces with face pyramid volume < 1e-13                 : 0
    faces with face-decomposition tet quality < -1         : 0
    faces with concavity > 80  degrees                     : 0
    faces with skewness > 4   (internal) or 20  (boundary) : 0
    faces with interpolation weights (0..1)  < 0.05        : 0
    faces with volume ratio of neighbour cells < 0.01      : 0
    faces with face twist < 0.01                           : 0
    faces on cells with determinant < 0.001                : 0
displacementMedialAxis : Successfully moved mesh
displacementMedialAxis : Finished moving mesh ...
truncateDisplacement : Unextruded 0 faces due to non-consecutive vertices being extruded.
truncateDisplacement : Unextruded 0 faces due to stringed edges with inconsistent extrusion.

Setting up information for layer truncation ...
Detected 0 baffles across faceZones of type internal


Checking mesh with layer ...
Checking faces in error :
    non-orthogonality > 65  degrees                        : 0
    faces with face pyramid volume < 1e-13                 : 39
    faces with face-decomposition tet quality < -1         : 0
    faces with concavity > 80  degrees                     : 0
    faces with skewness > 4   (internal) or 20  (boundary) : 0
    faces with interpolation weights (0..1)  < 0.05        : 0
    faces with volume ratio of neighbour cells < 0.01      : 0
    faces with face twist < 0.01                           : 0
    faces on cells with determinant < 0.001                : 0
Detected 39 illegal faces (concave, zero area or negative cell pyramid volume)
Extruding 12883 out of 13297 faces (96.8865157554335%). Removed extrusion at 21 faces.
Added 38364 out of 39891 cells (96.172068887719%).


Layer addition iteration 11
--------------------------

Determining displacement for added points according to pointNormal ...
Detected 0 points with point normal pointing through faces.
Reset displacement at 0 points to average of surrounding points.

displacementMedialAxis : Smoothing using Medial Axis ...
displacementMedialAxis : Reducing layer thickness at 0 nodes where thickness to medial axis distance is large 
displacementMedialAxis : Removing isolated regions ...
- if partially extruded faces make angle < 60
- if exclusively surrounded by non-extruded faces
displacementMedialAxis : Number of isolated points extrusion stopped : 4
fieldSmoother : Smoothing field ...
    Iteration 0   residual 1.41164625804005e-07
displacementMedialAxis : Moving mesh ...
displacementMedialAxis : Iteration 0
Moving mesh using displacement scaling : min:1  max:1
Checking faces in error :
    non-orthogonality > 65  degrees                        : 0
    faces with face pyramid volume < 1e-13                 : 0
    faces with face-decomposition tet quality < -1         : 0
    faces with concavity > 80  degrees                     : 82
    faces with skewness > 4   (internal) or 20  (boundary) : 0
    faces with interpolation weights (0..1)  < 0.05        : 0
    faces with volume ratio of neighbour cells < 0.01      : 0
    faces with face twist < 0.01                           : 0
    faces on cells with determinant < 0.001                : 0
displacementMedialAxis : Iteration 1
Moving mesh using displacement scaling : min:0.75  max:1
Checking faces in error :
    non-orthogonality > 65  degrees                        : 0
    faces with face pyramid volume < 1e-13                 : 0
    faces with face-decomposition tet quality < -1         : 0
    faces with concavity > 80  degrees                     : 80
    faces with skewness > 4   (internal) or 20  (boundary) : 0
    faces with interpolation weights (0..1)  < 0.05        : 0
    faces with volume ratio of neighbour cells < 0.01      : 0
    faces with face twist < 0.01                           : 0
    faces on cells with determinant < 0.001                : 0
displacementMedialAxis : Iteration 2
Moving mesh using displacement scaling : min:0.5625  max:1
Checking faces in error :
    non-orthogonality > 65  degrees                        : 0
    faces with face pyramid volume < 1e-13                 : 0
    faces with face-decomposition tet quality < -1         : 0
    faces with concavity > 80  degrees                     : 77
    faces with skewness > 4   (internal) or 20  (boundary) : 0
    faces with interpolation weights (0..1)  < 0.05        : 0
    faces with volume ratio of neighbour cells < 0.01      : 0
    faces with face twist < 0.01                           : 0
    faces on cells with determinant < 0.001                : 0
displacementMedialAxis : Iteration 3
displacementMedialAxis : Displacement scaling for error reduction set to 0.
Moving mesh using displacement scaling : min:0.421875  max:1
Checking faces in error :
    non-orthogonality > 65  degrees                        : 0
    faces with face pyramid volume < 1e-13                 : 0
    faces with face-decomposition tet quality < -1         : 0
    faces with concavity > 80  degrees                     : 71
    faces with skewness > 4   (internal) or 20  (boundary) : 0
    faces with interpolation weights (0..1)  < 0.05        : 0
    faces with volume ratio of neighbour cells < 0.01      : 0
    faces with face twist < 0.01                           : 0
    faces on cells with determinant < 0.001                : 0
displacementMedialAxis : Iteration 4
Moving mesh using displacement scaling : min:0  max:1
Checking faces in error :
    non-orthogonality > 65  degrees                        : 0
    faces with face pyramid volume < 1e-13                 : 0
    faces with face-decomposition tet quality < -1         : 0
    faces with concavity > 80  degrees                     : 0
    faces with skewness > 4   (internal) or 20  (boundary) : 0
    faces with interpolation weights (0..1)  < 0.05        : 0
    faces with volume ratio of neighbour cells < 0.01      : 0
    faces with face twist < 0.01                           : 0
    faces on cells with determinant < 0.001                : 0
displacementMedialAxis : Successfully moved mesh
displacementMedialAxis : Finished moving mesh ...
truncateDisplacement : Unextruded 0 faces due to non-consecutive vertices being extruded.
truncateDisplacement : Unextruded 0 faces due to stringed edges with inconsistent extrusion.

Setting up information for layer truncation ...
Detected 0 baffles across faceZones of type internal


Checking mesh with layer ...
Checking faces in error :
    non-orthogonality > 65  degrees                        : 0
    faces with face pyramid volume < 1e-13                 : 27
    faces with face-decomposition tet quality < -1         : 0
    faces with concavity > 80  degrees                     : 0
    faces with skewness > 4   (internal) or 20  (boundary) : 0
    faces with interpolation weights (0..1)  < 0.05        : 0
    faces with volume ratio of neighbour cells < 0.01      : 0
    faces with face twist < 0.01                           : 0
    faces on cells with determinant < 0.001                : 0
Detected 27 illegal faces (concave, zero area or negative cell pyramid volume)
Extruding 12862 out of 13297 faces (96.7285853952019%). Removed extrusion at 7 faces.
Added 38312 out of 39891 cells (96.0417136697501%).


Layer addition iteration 12
--------------------------

Determining displacement for added points according to pointNormal ...
Detected 0 points with point normal pointing through faces.
Reset displacement at 0 points to average of surrounding points.

displacementMedialAxis : Smoothing using Medial Axis ...
displacementMedialAxis : Reducing layer thickness at 0 nodes where thickness to medial axis distance is large 
displacementMedialAxis : Removing isolated regions ...
- if partially extruded faces make angle < 60
- if exclusively surrounded by non-extruded faces
displacementMedialAxis : Number of isolated points extrusion stopped : 0
fieldSmoother : Smoothing field ...
    Iteration 0   residual 1.34834660072671e-07
displacementMedialAxis : Moving mesh ...
displacementMedialAxis : Iteration 0
Moving mesh using displacement scaling : min:1  max:1
Checking faces in error :
    non-orthogonality > 65  degrees                        : 0
    faces with face pyramid volume < 1e-13                 : 0
    faces with face-decomposition tet quality < -1         : 0
    faces with concavity > 80  degrees                     : 82
    faces with skewness > 4   (internal) or 20  (boundary) : 0
    faces with interpolation weights (0..1)  < 0.05        : 0
    faces with volume ratio of neighbour cells < 0.01      : 0
    faces with face twist < 0.01                           : 0
    faces on cells with determinant < 0.001                : 0
displacementMedialAxis : Iteration 1
Moving mesh using displacement scaling : min:0.75  max:1
Checking faces in error :
    non-orthogonality > 65  degrees                        : 0
    faces with face pyramid volume < 1e-13                 : 0
    faces with face-decomposition tet quality < -1         : 0
    faces with concavity > 80  degrees                     : 80
    faces with skewness > 4   (internal) or 20  (boundary) : 0
    faces with interpolation weights (0..1)  < 0.05        : 0
    faces with volume ratio of neighbour cells < 0.01      : 0
    faces with face twist < 0.01                           : 0
    faces on cells with determinant < 0.001                : 0
displacementMedialAxis : Iteration 2
Moving mesh using displacement scaling : min:0.5625  max:1
Checking faces in error :
    non-orthogonality > 65  degrees                        : 0
    faces with face pyramid volume < 1e-13                 : 0
    faces with face-decomposition tet quality < -1         : 0
    faces with concavity > 80  degrees                     : 77
    faces with skewness > 4   (internal) or 20  (boundary) : 0
    faces with interpolation weights (0..1)  < 0.05        : 0
    faces with volume ratio of neighbour cells < 0.01      : 0
    faces with face twist < 0.01                           : 0
    faces on cells with determinant < 0.001                : 0
displacementMedialAxis : Iteration 3
displacementMedialAxis : Displacement scaling for error reduction set to 0.
Moving mesh using displacement scaling : min:0.421875  max:1
Checking faces in error :
    non-orthogonality > 65  degrees                        : 0
    faces with face pyramid volume < 1e-13                 : 0
    faces with face-decomposition tet quality < -1         : 0
    faces with concavity > 80  degrees                     : 71
    faces with skewness > 4   (internal) or 20  (boundary) : 0
    faces with interpolation weights (0..1)  < 0.05        : 0
    faces with volume ratio of neighbour cells < 0.01      : 0
    faces with face twist < 0.01                           : 0
    faces on cells with determinant < 0.001                : 0
displacementMedialAxis : Iteration 4
Moving mesh using displacement scaling : min:0  max:1
Checking faces in error :
    non-orthogonality > 65  degrees                        : 0
    faces with face pyramid volume < 1e-13                 : 0
    faces with face-decomposition tet quality < -1         : 0
    faces with concavity > 80  degrees                     : 0
    faces with skewness > 4   (internal) or 20  (boundary) : 0
    faces with interpolation weights (0..1)  < 0.05        : 0
    faces with volume ratio of neighbour cells < 0.01      : 0
    faces with face twist < 0.01                           : 0
    faces on cells with determinant < 0.001                : 0
displacementMedialAxis : Successfully moved mesh
displacementMedialAxis : Finished moving mesh ...
truncateDisplacement : Unextruded 0 faces due to non-consecutive vertices being extruded.
truncateDisplacement : Unextruded 0 faces due to stringed edges with inconsistent extrusion.

Setting up information for layer truncation ...
Detected 0 baffles across faceZones of type internal


Checking mesh with layer ...
Checking faces in error :
    non-orthogonality > 65  degrees                        : 0
    faces with face pyramid volume < 1e-13                 : 13
    faces with face-decomposition tet quality < -1         : 0
    faces with concavity > 80  degrees                     : 0
    faces with skewness > 4   (internal) or 20  (boundary) : 0
    faces with interpolation weights (0..1)  < 0.05        : 0
    faces with volume ratio of neighbour cells < 0.01      : 0
    faces with face twist < 0.01                           : 0
    faces on cells with determinant < 0.001                : 0
Detected 13 illegal faces (concave, zero area or negative cell pyramid volume)
Extruding 12854 out of 13297 faces (96.668421448447%). Removed extrusion at 5 faces.
Added 38290 out of 39891 cells (95.9865633852247%).


Layer addition iteration 13
--------------------------

Determining displacement for added points according to pointNormal ...
Detected 0 points with point normal pointing through faces.
Reset displacement at 0 points to average of surrounding points.

displacementMedialAxis : Smoothing using Medial Axis ...
displacementMedialAxis : Reducing layer thickness at 0 nodes where thickness to medial axis distance is large 
displacementMedialAxis : Removing isolated regions ...
- if partially extruded faces make angle < 60
- if exclusively surrounded by non-extruded faces
displacementMedialAxis : Number of isolated points extrusion stopped : 0
fieldSmoother : Smoothing field ...
    Iteration 0   residual 1.27821394594705e-07
displacementMedialAxis : Moving mesh ...
displacementMedialAxis : Iteration 0
Moving mesh using displacement scaling : min:1  max:1
Checking faces in error :
    non-orthogonality > 65  degrees                        : 0
    faces with face pyramid volume < 1e-13                 : 0
    faces with face-decomposition tet quality < -1         : 0
    faces with concavity > 80  degrees                     : 82
    faces with skewness > 4   (internal) or 20  (boundary) : 0
    faces with interpolation weights (0..1)  < 0.05        : 0
    faces with volume ratio of neighbour cells < 0.01      : 0
    faces with face twist < 0.01                           : 0
    faces on cells with determinant < 0.001                : 0
displacementMedialAxis : Iteration 1
Moving mesh using displacement scaling : min:0.75  max:1
Checking faces in error :
    non-orthogonality > 65  degrees                        : 0
    faces with face pyramid volume < 1e-13                 : 0
    faces with face-decomposition tet quality < -1         : 0
    faces with concavity > 80  degrees                     : 80
    faces with skewness > 4   (internal) or 20  (boundary) : 0
    faces with interpolation weights (0..1)  < 0.05        : 0
    faces with volume ratio of neighbour cells < 0.01      : 0
    faces with face twist < 0.01                           : 0
    faces on cells with determinant < 0.001                : 0
displacementMedialAxis : Iteration 2
Moving mesh using displacement scaling : min:0.5625  max:1
Checking faces in error :
    non-orthogonality > 65  degrees                        : 0
    faces with face pyramid volume < 1e-13                 : 0
    faces with face-decomposition tet quality < -1         : 0
    faces with concavity > 80  degrees                     : 77
    faces with skewness > 4   (internal) or 20  (boundary) : 0
    faces with interpolation weights (0..1)  < 0.05        : 0
    faces with volume ratio of neighbour cells < 0.01      : 0
    faces with face twist < 0.01                           : 0
    faces on cells with determinant < 0.001                : 0
displacementMedialAxis : Iteration 3
displacementMedialAxis : Displacement scaling for error reduction set to 0.
Moving mesh using displacement scaling : min:0.421875  max:1
Checking faces in error :
    non-orthogonality > 65  degrees                        : 0
    faces with face pyramid volume < 1e-13                 : 0
    faces with face-decomposition tet quality < -1         : 0
    faces with concavity > 80  degrees                     : 71
    faces with skewness > 4   (internal) or 20  (boundary) : 0
    faces with interpolation weights (0..1)  < 0.05        : 0
    faces with volume ratio of neighbour cells < 0.01      : 0
    faces with face twist < 0.01                           : 0
    faces on cells with determinant < 0.001                : 0
displacementMedialAxis : Iteration 4
Moving mesh using displacement scaling : min:0  max:1
Checking faces in error :
    non-orthogonality > 65  degrees                        : 0
    faces with face pyramid volume < 1e-13                 : 0
    faces with face-decomposition tet quality < -1         : 0
    faces with concavity > 80  degrees                     : 0
    faces with skewness > 4   (internal) or 20  (boundary) : 0
    faces with interpolation weights (0..1)  < 0.05        : 0
    faces with volume ratio of neighbour cells < 0.01      : 0
    faces with face twist < 0.01                           : 0
    faces on cells with determinant < 0.001                : 0
displacementMedialAxis : Successfully moved mesh
displacementMedialAxis : Finished moving mesh ...
truncateDisplacement : Unextruded 0 faces due to non-consecutive vertices being extruded.
truncateDisplacement : Unextruded 0 faces due to stringed edges with inconsistent extrusion.

Setting up information for layer truncation ...
Detected 0 baffles across faceZones of type internal


Checking mesh with layer ...
Checking faces in error :
    non-orthogonality > 65  degrees                        : 0
    faces with face pyramid volume < 1e-13                 : 0
    faces with face-decomposition tet quality < -1         : 0
    faces with concavity > 80  degrees                     : 0
    faces with skewness > 4   (internal) or 20  (boundary) : 0
    faces with interpolation weights (0..1)  < 0.05        : 0
    faces with volume ratio of neighbour cells < 0.01      : 0
    faces with face twist < 0.01                           : 0
    faces on cells with determinant < 0.001                : 0
Detected 0 illegal faces (concave, zero area or negative cell pyramid volume)
Extruding 12854 out of 13297 faces (96.668421448447%). Removed extrusion at 0 faces.
Added 38277 out of 39891 cells (95.9539745807325%).
Edge intersection testing:
    Number of edges             : 680871
    Number of edges to retest   : 0
    Number of intersected edges : 68708

patch     faces    layers   overall thickness
                            [m]       [%]
-----     -----    ------   ---       ---
patch_4_1 13297    2.88     0.000161  95.9    

Converting baffles back into zoned faces ...
Converted baffles in = 14.428 s



Doing final balancing
---------------------

Layer mesh : cells:214084  faces:680871  points:255362
Cells per refinement level:
    0	29071
    1	67140
    2	6120
    3	14774
    4	96979
Writing mesh to time constant
Wrote mesh in = 1.75 s.
Layers added in = 17.398 s.
Checking final mesh ...
Checking faces in error :
    non-orthogonality > 65  degrees                        : 0
    faces with face pyramid volume < 1e-13                 : 0
    faces with face-decomposition tet quality < -1         : 0
    faces with concavity > 80  degrees                     : 0
    faces with skewness > 4   (internal) or 20  (boundary) : 0
    faces with interpolation weights (0..1)  < 0.05        : 0
    faces with volume ratio of neighbour cells < 0.01      : 0
    faces with face twist < 0.01                           : 0
    faces on cells with determinant < 0.001                : 0
Finished meshing without any errors
Finished meshing in = 166.026 s.
End

Finalising parallel run
