/*---------------------------------------------------------------------------*\
| =========                 |                                                 |
| \\      /  F ield         | OpenFOAM: The Open Source CFD Toolbox           |
|  \\    /   O peration     | Version:  2406                                  |
|   \\  /    A nd           | Website:  www.openfoam.com                      |
|    \\/     M anipulation  |                                                 |
\*---------------------------------------------------------------------------*/
Build  : _9bfe8264-20241212 OPENFOAM=2406 patch=241212 version=2406
Arch   : "LSB;label=32;scalar=64"
Exec   : sonicFoam
Date   : Apr 09 2025
Time   : 01:48:38
Host   : Indigo
PID    : 3254
I/O    : uncollated
Case   : /mnt/e/Repository/OpenFoam/bulletSim/trial
nProcs : 1
trapFpe: Floating point exception trapping enabled (FOAM_SIGFPE).
fileModificationChecking : Monitoring run-time modified files using timeStampMaster (fileModificationSkew 5, maxFileModificationPolls 20)
allowSystemOperations : Allowing user-supplied system call operations

// * * * * * * * * * * * * * * * * * * * * * * * * * * * * * * * * * * * * * //
Create time

Create mesh for time = 0


PIMPLE: no residual control data found. Calculations will employ 2 corrector loops

Reading thermophysical properties

Selecting thermodynamics package 
{
    type            hePsiThermo;
    mixture         pureMixture;
    transport       const;
    thermo          hConst;
    equationOfState perfectGas;
    specie          specie;
    energy          sensibleInternalEnergy;
}

Reading field U

Reading/calculating face flux field phi

Creating turbulence model

Selecting turbulence model type laminar
Selecting laminar stress model Stokes
Creating field kinetic energy K

No MRF models present

No finite volume options present

Starting time loop

Time = 1e-05

Courant Number mean: 0 max: 0
diagonal:  Solving for rho, Initial residual = 0, Final residual = 0, No Iterations 0
PIMPLE: iteration 1
smoothSolver:  Solving for Ux, Initial residual = 1, Final residual = 0, No Iterations 1
smoothSolver:  Solving for e, Initial residual = 4.6153e-17, Final residual = 4.6153e-17, No Iterations 0
smoothSolver:  Solving for p, Initial residual = 0.000178178, Final residual = 6.42987e-17, No Iterations 6
diagonal:  Solving for rho, Initial residual = 0, Final residual = 0, No Iterations 0
time step continuity errors : sum local = 1.43641e-16, global = -8.8193e-17, cumulative = -8.8193e-17
PIMPLE: iteration 2
smoothSolver:  Solving for Ux, Initial residual = 0.0374577, Final residual = 8.91395e-18, No Iterations 1
smoothSolver:  Solving for e, Initial residual = 0.00110349, Final residual = 1.14382e-17, No Iterations 3
smoothSolver:  Solving for p, Initial residual = 9.51306e-05, Final residual = 9.72343e-16, No Iterations 5
diagonal:  Solving for rho, Initial residual = 0, Final residual = 0, No Iterations 0
time step continuity errors : sum local = 1.77333e-15, global = -4.8427e-16, cumulative = -5.72463e-16
ExecutionTime = 0.04 s  ClockTime = 0 s

Time = 2e-05

Courant Number mean: 0.000299366 max: 0.205934
diagonal:  Solving for rho, Initial residual = 0, Final residual = 0, No Iterations 0
PIMPLE: iteration 1
smoothSolver:  Solving for Ux, Initial residual = 0.130023, Final residual = 1.09819e-17, No Iterations 1
smoothSolver:  Solving for e, Initial residual = 0.000632523, Final residual = 1.16573e-17, No Iterations 3
smoothSolver:  Solving for p, Initial residual = 0.000385772, Final residual = 1.20309e-16, No Iterations 6
diagonal:  Solving for rho, Initial residual = 0, Final residual = 0, No Iterations 0
time step continuity errors : sum local = 2.60449e-16, global = -6.30409e-17, cumulative = -6.35504e-16
PIMPLE: iteration 2
smoothSolver:  Solving for Ux, Initial residual = 0.0260491, Final residual = 1.24325e-17, No Iterations 1
smoothSolver:  Solving for e, Initial residual = 0.000441808, Final residual = 3.90891e-17, No Iterations 4
smoothSolver:  Solving for p, Initial residual = 6.75216e-05, Final residual = 3.57127e-16, No Iterations 5
diagonal:  Solving for rho, Initial residual = 0, Final residual = 0, No Iterations 0
time step continuity errors : sum local = 6.68323e-16, global = -6.97679e-17, cumulative = -7.05272e-16
ExecutionTime = 0.04 s  ClockTime = 0 s

Time = 3e-05

Courant Number mean: 0.000622073 max: 0.294247
diagonal:  Solving for rho, Initial residual = 0, Final residual = 0, No Iterations 0
PIMPLE: iteration 1
smoothSolver:  Solving for Ux, Initial residual = 0.0708585, Final residual = 2.65099e-17, No Iterations 1
smoothSolver:  Solving for e, Initial residual = 0.000789139, Final residual = 1.2875e-16, No Iterations 4
smoothSolver:  Solving for p, Initial residual = 0.000389467, Final residual = 8.51587e-17, No Iterations 6
diagonal:  Solving for rho, Initial residual = 0, Final residual = 0, No Iterations 0
time step continuity errors : sum local = 1.8984e-16, global = -1.31226e-16, cumulative = -8.36498e-16
PIMPLE: iteration 2
smoothSolver:  Solving for Ux, Initial residual = 0.00637659, Final residual = 9.65971e-18, No Iterations 1
smoothSolver:  Solving for e, Initial residual = 0.000338288, Final residual = 7.29729e-17, No Iterations 5
smoothSolver:  Solving for p, Initial residual = 5.6011e-05, Final residual = 2.35742e-16, No Iterations 5
diagonal:  Solving for rho, Initial residual = 0, Final residual = 0, No Iterations 0
time step continuity errors : sum local = 4.49843e-16, global = 2.37176e-17, cumulative = -8.1278e-16
ExecutionTime = 0.05 s  ClockTime = 0 s

Time = 4e-05

Courant Number mean: 0.000797208 max: 0.280133
diagonal:  Solving for rho, Initial residual = 0, Final residual = 0, No Iterations 0
PIMPLE: iteration 1
smoothSolver:  Solving for Ux, Initial residual = 0.0497335, Final residual = 8.88721e-18, No Iterations 1
smoothSolver:  Solving for e, Initial residual = 0.000779087, Final residual = 2.463e-17, No Iterations 5
smoothSolver:  Solving for p, Initial residual = 0.000349292, Final residual = 7.38315e-17, No Iterations 6
diagonal:  Solving for rho, Initial residual = 0, Final residual = 0, No Iterations 0
time step continuity errors : sum local = 1.74902e-16, global = -1.16634e-16, cumulative = -9.29414e-16
PIMPLE: iteration 2
smoothSolver:  Solving for Ux, Initial residual = 0.00408982, Final residual = 1.74108e-17, No Iterations 1
smoothSolver:  Solving for e, Initial residual = 0.0003104, Final residual = 3.84498e-16, No Iterations 6
smoothSolver:  Solving for p, Initial residual = 3.66659e-05, Final residual = 1.94195e-16, No Iterations 5
diagonal:  Solving for rho, Initial residual = 0, Final residual = 0, No Iterations 0
time step continuity errors : sum local = 3.86209e-16, global = -8.73026e-17, cumulative = -1.01672e-15
ExecutionTime = 0.05 s  ClockTime = 0 s

Time = 5e-05

Courant Number mean: 0.000993862 max: 0.270228
diagonal:  Solving for rho, Initial residual = 0, Final residual = 0, No Iterations 0
PIMPLE: iteration 1
smoothSolver:  Solving for Ux, Initial residual = 0.0384021, Final residual = 2.23164e-17, No Iterations 1
smoothSolver:  Solving for e, Initial residual = 0.000801621, Final residual = 5.759e-17, No Iterations 6
smoothSolver:  Solving for p, Initial residual = 0.000341927, Final residual = 7.23049e-17, No Iterations 6
diagonal:  Solving for rho, Initial residual = 0, Final residual = 0, No Iterations 0
time step continuity errors : sum local = 1.68447e-16, global = -8.9108e-17, cumulative = -1.10582e-15
PIMPLE: iteration 2
smoothSolver:  Solving for Ux, Initial residual = 0.00320796, Final residual = 1.06407e-17, No Iterations 1
smoothSolver:  Solving for e, Initial residual = 0.0003175, Final residual = 2.16376e-16, No Iterations 6
smoothSolver:  Solving for p, Initial residual = 3.55307e-05, Final residual = 1.97218e-16, No Iterations 5
diagonal:  Solving for rho, Initial residual = 0, Final residual = 0, No Iterations 0
time step continuity errors : sum local = 3.79655e-16, global = -7.47142e-17, cumulative = -1.18054e-15
ExecutionTime = 0.05 s  ClockTime = 0 s

Time = 6e-05

Courant Number mean: 0.00120186 max: 0.276727
diagonal:  Solving for rho, Initial residual = 0, Final residual = 0, No Iterations 0
PIMPLE: iteration 1
smoothSolver:  Solving for Ux, Initial residual = 0.0324784, Final residual = 8.53155e-18, No Iterations 1
smoothSolver:  Solving for e, Initial residual = 0.00082951, Final residual = 1.91509e-16, No Iterations 6
smoothSolver:  Solving for p, Initial residual = 0.000327792, Final residual = 8.53958e-17, No Iterations 6
diagonal:  Solving for rho, Initial residual = 0, Final residual = 0, No Iterations 0
time step continuity errors : sum local = 1.79255e-16, global = -5.74268e-17, cumulative = -1.23797e-15
PIMPLE: iteration 2
smoothSolver:  Solving for Ux, Initial residual = 0.00241635, Final residual = 1.05965e-17, No Iterations 1
smoothSolver:  Solving for e, Initial residual = 0.000302522, Final residual = 4.93938e-17, No Iterations 7
smoothSolver:  Solving for p, Initial residual = 3.4469e-05, Final residual = 2.93171e-16, No Iterations 5
diagonal:  Solving for rho, Initial residual = 0, Final residual = 0, No Iterations 0
time step continuity errors : sum local = 5.47261e-16, global = 1.42207e-16, cumulative = -1.09576e-15
ExecutionTime = 0.06 s  ClockTime = 1 s

Time = 7e-05

Courant Number mean: 0.00141502 max: 0.288407
diagonal:  Solving for rho, Initial residual = 0, Final residual = 0, No Iterations 0
PIMPLE: iteration 1
smoothSolver:  Solving for Ux, Initial residual = 0.0281061, Final residual = 1.16974e-17, No Iterations 1
smoothSolver:  Solving for e, Initial residual = 0.000853287, Final residual = 5.0316e-17, No Iterations 7
smoothSolver:  Solving for p, Initial residual = 0.000314112, Final residual = 1.01712e-16, No Iterations 6
diagonal:  Solving for rho, Initial residual = 0, Final residual = 0, No Iterations 0
time step continuity errors : sum local = 2.0411e-16, global = -2.09477e-17, cumulative = -1.11671e-15
PIMPLE: iteration 2
smoothSolver:  Solving for Ux, Initial residual = 0.00180736, Final residual = 1.2416e-17, No Iterations 1
smoothSolver:  Solving for e, Initial residual = 0.00026412, Final residual = 5.56825e-17, No Iterations 7
smoothSolver:  Solving for p, Initial residual = 3.17701e-05, Final residual = 5.13165e-16, No Iterations 5
diagonal:  Solving for rho, Initial residual = 0, Final residual = 0, No Iterations 0
time step continuity errors : sum local = 9.3901e-16, global = 5.24409e-16, cumulative = -5.92298e-16
ExecutionTime = 0.06 s  ClockTime = 1 s

Time = 8e-05

Courant Number mean: 0.00163068 max: 0.29237
diagonal:  Solving for rho, Initial residual = 0, Final residual = 0, No Iterations 0
PIMPLE: iteration 1
smoothSolver:  Solving for Ux, Initial residual = 0.0244631, Final residual = 1.23717e-17, No Iterations 1
smoothSolver:  Solving for e, Initial residual = 0.000868406, Final residual = 5.88032e-17, No Iterations 7
smoothSolver:  Solving for p, Initial residual = 0.000302686, Final residual = 1.16143e-16, No Iterations 6
diagonal:  Solving for rho, Initial residual = 0, Final residual = 0, No Iterations 0
time step continuity errors : sum local = 2.41727e-16, global = 2.62155e-18, cumulative = -5.89676e-16
PIMPLE: iteration 2
smoothSolver:  Solving for Ux, Initial residual = 0.0015036, Final residual = 1.90533e-17, No Iterations 1
smoothSolver:  Solving for e, Initial residual = 0.000249316, Final residual = 8.54297e-17, No Iterations 7
smoothSolver:  Solving for p, Initial residual = 3.02218e-05, Final residual = 9.94119e-16, No Iterations 5
diagonal:  Solving for rho, Initial residual = 0, Final residual = 0, No Iterations 0
time step continuity errors : sum local = 1.80669e-15, global = 1.32507e-15, cumulative = 7.35395e-16
ExecutionTime = 0.06 s  ClockTime = 1 s

Time = 9e-05

Courant Number mean: 0.00184721 max: 0.291956
diagonal:  Solving for rho, Initial residual = 0, Final residual = 0, No Iterations 0
PIMPLE: iteration 1
smoothSolver:  Solving for Ux, Initial residual = 0.0221302, Final residual = 1.34338e-17, No Iterations 1
smoothSolver:  Solving for e, Initial residual = 0.000895874, Final residual = 1.04429e-16, No Iterations 7
smoothSolver:  Solving for p, Initial residual = 0.000296799, Final residual = 1.28206e-16, No Iterations 6
diagonal:  Solving for rho, Initial residual = 0, Final residual = 0, No Iterations 0
time step continuity errors : sum local = 2.62081e-16, global = 2.97027e-17, cumulative = 7.65097e-16
PIMPLE: iteration 2
smoothSolver:  Solving for Ux, Initial residual = 0.00121695, Final residual = 1.94073e-17, No Iterations 1
smoothSolver:  Solving for e, Initial residual = 0.000228492, Final residual = 7.05291e-17, No Iterations 7
smoothSolver:  Solving for p, Initial residual = 2.75006e-05, Final residual = 5.41096e-17, No Iterations 6
diagonal:  Solving for rho, Initial residual = 0, Final residual = 0, No Iterations 0
time step continuity errors : sum local = 1.20814e-16, global = -6.07161e-17, cumulative = 7.04381e-16
ExecutionTime = 0.07 s  ClockTime = 1 s

Time = 0.0001

Courant Number mean: 0.00206422 max: 0.297426
diagonal:  Solving for rho, Initial residual = 0, Final residual = 0, No Iterations 0
PIMPLE: iteration 1
smoothSolver:  Solving for Ux, Initial residual = 0.0198571, Final residual = 1.17336e-17, No Iterations 1
smoothSolver:  Solving for e, Initial residual = 0.00091204, Final residual = 1.21704e-16, No Iterations 7
smoothSolver:  Solving for p, Initial residual = 0.0002934, Final residual = 1.36671e-16, No Iterations 6
diagonal:  Solving for rho, Initial residual = 0, Final residual = 0, No Iterations 0
time step continuity errors : sum local = 2.79764e-16, global = 3.91749e-17, cumulative = 7.43556e-16
PIMPLE: iteration 2
smoothSolver:  Solving for Ux, Initial residual = 0.00102481, Final residual = 6.65534e-18, No Iterations 1
smoothSolver:  Solving for e, Initial residual = 0.000217121, Final residual = 6.40957e-17, No Iterations 7
smoothSolver:  Solving for p, Initial residual = 2.71411e-05, Final residual = 5.62464e-17, No Iterations 6
diagonal:  Solving for rho, Initial residual = 0, Final residual = 0, No Iterations 0
time step continuity errors : sum local = 1.26478e-16, global = -6.45001e-17, cumulative = 6.79056e-16
ExecutionTime = 0.07 s  ClockTime = 1 s

Time = 0.00011

Courant Number mean: 0.00228282 max: 0.300437
diagonal:  Solving for rho, Initial residual = 0, Final residual = 0, No Iterations 0
PIMPLE: iteration 1
smoothSolver:  Solving for Ux, Initial residual = 0.0177991, Final residual = 1.22724e-17, No Iterations 1
smoothSolver:  Solving for e, Initial residual = 0.000929018, Final residual = 1.26167e-16, No Iterations 7
smoothSolver:  Solving for p, Initial residual = 0.000291277, Final residual = 1.28112e-16, No Iterations 6
diagonal:  Solving for rho, Initial residual = 0, Final residual = 0, No Iterations 0
time step continuity errors : sum local = 2.69055e-16, global = 3.31651e-17, cumulative = 7.12221e-16
PIMPLE: iteration 2
smoothSolver:  Solving for Ux, Initial residual = 0.000867657, Final residual = 1.32681e-17, No Iterations 1
smoothSolver:  Solving for e, Initial residual = 0.000215456, Final residual = 1.3216e-16, No Iterations 7
smoothSolver:  Solving for p, Initial residual = 2.64848e-05, Final residual = 6.1068e-17, No Iterations 6
diagonal:  Solving for rho, Initial residual = 0, Final residual = 0, No Iterations 0
time step continuity errors : sum local = 1.34639e-16, global = -6.44011e-17, cumulative = 6.4782e-16
ExecutionTime = 0.07 s  ClockTime = 1 s

Time = 0.00012

Courant Number mean: 0.0025021 max: 0.300355
diagonal:  Solving for rho, Initial residual = 0, Final residual = 0, No Iterations 0
PIMPLE: iteration 1
smoothSolver:  Solving for Ux, Initial residual = 0.0162942, Final residual = 2.16547e-17, No Iterations 1
smoothSolver:  Solving for e, Initial residual = 0.00097059, Final residual = 2.45431e-16, No Iterations 7
smoothSolver:  Solving for p, Initial residual = 0.00029016, Final residual = 1.19595e-16, No Iterations 6
diagonal:  Solving for rho, Initial residual = 0, Final residual = 0, No Iterations 0
time step continuity errors : sum local = 2.46426e-16, global = 3.04199e-17, cumulative = 6.7824e-16
PIMPLE: iteration 2
smoothSolver:  Solving for Ux, Initial residual = 0.000760229, Final residual = 1.01441e-17, No Iterations 1
smoothSolver:  Solving for e, Initial residual = 0.000216056, Final residual = 7.56874e-17, No Iterations 7
smoothSolver:  Solving for p, Initial residual = 2.73445e-05, Final residual = 6.03556e-17, No Iterations 6
diagonal:  Solving for rho, Initial residual = 0, Final residual = 0, No Iterations 0
time step continuity errors : sum local = 1.41069e-16, global = -6.48958e-17, cumulative = 6.13344e-16
ExecutionTime = 0.07 s  ClockTime = 1 s

Time = 0.00013

Courant Number mean: 0.00272413 max: 0.30151
diagonal:  Solving for rho, Initial residual = 0, Final residual = 0, No Iterations 0
PIMPLE: iteration 1
smoothSolver:  Solving for Ux, Initial residual = 0.0149952, Final residual = 1.5286e-17, No Iterations 1
smoothSolver:  Solving for e, Initial residual = 0.000981264, Final residual = 2.6012e-16, No Iterations 7
smoothSolver:  Solving for p, Initial residual = 0.000289443, Final residual = 9.5357e-17, No Iterations 6
diagonal:  Solving for rho, Initial residual = 0, Final residual = 0, No Iterations 0
time step continuity errors : sum local = 2.01043e-16, global = -5.61408e-18, cumulative = 6.0773e-16
PIMPLE: iteration 2
smoothSolver:  Solving for Ux, Initial residual = 0.000678623, Final residual = 1.38907e-17, No Iterations 1
smoothSolver:  Solving for e, Initial residual = 0.000212073, Final residual = 1.04127e-16, No Iterations 7
smoothSolver:  Solving for p, Initial residual = 2.79045e-05, Final residual = 6.08658e-17, No Iterations 6
diagonal:  Solving for rho, Initial residual = 0, Final residual = 0, No Iterations 0
time step continuity errors : sum local = 1.35529e-16, global = -6.18785e-17, cumulative = 5.45852e-16
ExecutionTime = 0.07 s  ClockTime = 1 s

Time = 0.00014

Courant Number mean: 0.00294852 max: 0.303013
diagonal:  Solving for rho, Initial residual = 0, Final residual = 0, No Iterations 0
PIMPLE: iteration 1
smoothSolver:  Solving for Ux, Initial residual = 0.0138364, Final residual = 1.74286e-17, No Iterations 1
smoothSolver:  Solving for e, Initial residual = 0.00101865, Final residual = 3.41608e-16, No Iterations 7
smoothSolver:  Solving for p, Initial residual = 0.000288543, Final residual = 7.59484e-17, No Iterations 6
diagonal:  Solving for rho, Initial residual = 0, Final residual = 0, No Iterations 0
time step continuity errors : sum local = 1.66815e-16, global = -4.47395e-17, cumulative = 5.01112e-16
PIMPLE: iteration 2
smoothSolver:  Solving for Ux, Initial residual = 0.000603401, Final residual = 1.12316e-17, No Iterations 1
smoothSolver:  Solving for e, Initial residual = 0.000206722, Final residual = 1.04744e-16, No Iterations 7
smoothSolver:  Solving for p, Initial residual = 2.56315e-05, Final residual = 5.89781e-17, No Iterations 6
diagonal:  Solving for rho, Initial residual = 0, Final residual = 0, No Iterations 0
time step continuity errors : sum local = 1.36494e-16, global = -7.44174e-17, cumulative = 4.26695e-16
ExecutionTime = 0.08 s  ClockTime = 1 s

Time = 0.00015

Courant Number mean: 0.00317108 max: 0.302851
diagonal:  Solving for rho, Initial residual = 0, Final residual = 0, No Iterations 0
PIMPLE: iteration 1
smoothSolver:  Solving for Ux, Initial residual = 0.0128946, Final residual = 1.44928e-17, No Iterations 1
smoothSolver:  Solving for e, Initial residual = 0.00102586, Final residual = 3.72956e-16, No Iterations 7
smoothSolver:  Solving for p, Initial residual = 0.000289021, Final residual = 6.83161e-17, No Iterations 6
diagonal:  Solving for rho, Initial residual = 0, Final residual = 0, No Iterations 0
time step continuity errors : sum local = 1.49379e-16, global = -4.8474e-17, cumulative = 3.78221e-16
PIMPLE: iteration 2
smoothSolver:  Solving for Ux, Initial residual = 0.000552757, Final residual = 1.58342e-17, No Iterations 1
smoothSolver:  Solving for e, Initial residual = 0.000208685, Final residual = 1.17844e-16, No Iterations 7
smoothSolver:  Solving for p, Initial residual = 2.69035e-05, Final residual = 5.8896e-17, No Iterations 6
diagonal:  Solving for rho, Initial residual = 0, Final residual = 0, No Iterations 0
time step continuity errors : sum local = 1.33699e-16, global = -5.71795e-17, cumulative = 3.21041e-16
ExecutionTime = 0.08 s  ClockTime = 1 s

Time = 0.00016

Courant Number mean: 0.00339504 max: 0.304242
diagonal:  Solving for rho, Initial residual = 0, Final residual = 0, No Iterations 0
PIMPLE: iteration 1
smoothSolver:  Solving for Ux, Initial residual = 0.0120246, Final residual = 1.45037e-17, No Iterations 1
smoothSolver:  Solving for e, Initial residual = 0.00103317, Final residual = 4.67613e-16, No Iterations 7
smoothSolver:  Solving for p, Initial residual = 0.000291055, Final residual = 1.44826e-16, No Iterations 6
diagonal:  Solving for rho, Initial residual = 0, Final residual = 0, No Iterations 0
time step continuity errors : sum local = 2.93218e-16, global = 7.93885e-17, cumulative = 4.0043e-16
PIMPLE: iteration 2
smoothSolver:  Solving for Ux, Initial residual = 0.000513084, Final residual = 1.24202e-17, No Iterations 1
smoothSolver:  Solving for e, Initial residual = 0.000211379, Final residual = 9.01294e-17, No Iterations 7
smoothSolver:  Solving for p, Initial residual = 2.69023e-05, Final residual = 1.53471e-16, No Iterations 6
diagonal:  Solving for rho, Initial residual = 0, Final residual = 0, No Iterations 0
time step continuity errors : sum local = 3.06103e-16, global = -2.2528e-16, cumulative = 1.75149e-16
ExecutionTime = 0.08 s  ClockTime = 1 s

Time = 0.00017

Courant Number mean: 0.00361854 max: 0.304141
diagonal:  Solving for rho, Initial residual = 0, Final residual = 0, No Iterations 0
PIMPLE: iteration 1
smoothSolver:  Solving for Ux, Initial residual = 0.0112358, Final residual = 1.5395e-17, No Iterations 1
smoothSolver:  Solving for e, Initial residual = 0.00103796, Final residual = 4.58258e-16, No Iterations 7
smoothSolver:  Solving for p, Initial residual = 0.000291347, Final residual = 9.86373e-17, No Iterations 6
diagonal:  Solving for rho, Initial residual = 0, Final residual = 0, No Iterations 0
time step continuity errors : sum local = 2.1012e-16, global = -6.35603e-17, cumulative = 1.11589e-16
PIMPLE: iteration 2
smoothSolver:  Solving for Ux, Initial residual = 0.000465923, Final residual = 1.03127e-17, No Iterations 1
smoothSolver:  Solving for e, Initial residual = 0.000197296, Final residual = 1.11012e-16, No Iterations 7
smoothSolver:  Solving for p, Initial residual = 2.57484e-05, Final residual = 2.95043e-16, No Iterations 6
diagonal:  Solving for rho, Initial residual = 0, Final residual = 0, No Iterations 0
time step continuity errors : sum local = 5.59627e-16, global = -4.73215e-16, cumulative = -3.61626e-16
ExecutionTime = 0.09 s  ClockTime = 1 s

Time = 0.00018

Courant Number mean: 0.00384022 max: 0.303779
diagonal:  Solving for rho, Initial residual = 0, Final residual = 0, No Iterations 0
PIMPLE: iteration 1
smoothSolver:  Solving for Ux, Initial residual = 0.0105706, Final residual = 1.35051e-17, No Iterations 1
smoothSolver:  Solving for e, Initial residual = 0.00104085, Final residual = 5.58387e-16, No Iterations 7
smoothSolver:  Solving for p, Initial residual = 0.000290465, Final residual = 1.98135e-16, No Iterations 6
diagonal:  Solving for rho, Initial residual = 0, Final residual = 0, No Iterations 0
time step continuity errors : sum local = 3.91353e-16, global = 7.99326e-17, cumulative = -2.81693e-16
PIMPLE: iteration 2
smoothSolver:  Solving for Ux, Initial residual = 0.00044413, Final residual = 9.46722e-18, No Iterations 1
smoothSolver:  Solving for e, Initial residual = 0.000211395, Final residual = 9.28717e-17, No Iterations 7
smoothSolver:  Solving for p, Initial residual = 2.81788e-05, Final residual = 1.90926e-16, No Iterations 6
diagonal:  Solving for rho, Initial residual = 0, Final residual = 0, No Iterations 0
time step continuity errors : sum local = 3.78567e-16, global = -2.9072e-16, cumulative = -5.72413e-16
ExecutionTime = 0.09 s  ClockTime = 1 s

Time = 0.00019

Courant Number mean: 0.00406201 max: 0.303411
diagonal:  Solving for rho, Initial residual = 0, Final residual = 0, No Iterations 0
PIMPLE: iteration 1
smoothSolver:  Solving for Ux, Initial residual = 0.00997223, Final residual = 1.06637e-17, No Iterations 1
smoothSolver:  Solving for e, Initial residual = 0.00104944, Final residual = 5.63581e-16, No Iterations 7
smoothSolver:  Solving for p, Initial residual = 0.000289301, Final residual = 2.61396e-16, No Iterations 6
diagonal:  Solving for rho, Initial residual = 0, Final residual = 0, No Iterations 0
time step continuity errors : sum local = 4.96166e-16, global = 2.51026e-16, cumulative = -3.21387e-16
PIMPLE: iteration 2
smoothSolver:  Solving for Ux, Initial residual = 0.000403818, Final residual = 1.36504e-17, No Iterations 1
smoothSolver:  Solving for e, Initial residual = 0.000190968, Final residual = 1.09497e-16, No Iterations 7
smoothSolver:  Solving for p, Initial residual = 2.46458e-05, Final residual = 1.70561e-16, No Iterations 6
diagonal:  Solving for rho, Initial residual = 0, Final residual = 0, No Iterations 0
time step continuity errors : sum local = 3.32294e-16, global = -2.60968e-16, cumulative = -5.82355e-16
ExecutionTime = 0.09 s  ClockTime = 1 s

Time = 0.0002

Courant Number mean: 0.00427906 max: 0.302782
diagonal:  Solving for rho, Initial residual = 0, Final residual = 0, No Iterations 0
PIMPLE: iteration 1
smoothSolver:  Solving for Ux, Initial residual = 0.00942305, Final residual = 1.35595e-17, No Iterations 1
smoothSolver:  Solving for e, Initial residual = 0.00105021, Final residual = 6.01107e-16, No Iterations 7
smoothSolver:  Solving for p, Initial residual = 0.000289172, Final residual = 1.94712e-16, No Iterations 6
diagonal:  Solving for rho, Initial residual = 0, Final residual = 0, No Iterations 0
time step continuity errors : sum local = 3.86877e-16, global = 6.50194e-17, cumulative = -5.17336e-16
PIMPLE: iteration 2
smoothSolver:  Solving for Ux, Initial residual = 0.000384055, Final residual = 1.47104e-17, No Iterations 1
smoothSolver:  Solving for e, Initial residual = 0.000213579, Final residual = 9.22164e-17, No Iterations 7
smoothSolver:  Solving for p, Initial residual = 2.79996e-05, Final residual = 1.02202e-16, No Iterations 6
diagonal:  Solving for rho, Initial residual = 0, Final residual = 0, No Iterations 0
time step continuity errors : sum local = 2.21595e-16, global = -1.36716e-16, cumulative = -6.54052e-16
ExecutionTime = 0.1 s  ClockTime = 1 s

Time = 0.00021

Courant Number mean: 0.00449989 max: 0.301907
diagonal:  Solving for rho, Initial residual = 0, Final residual = 0, No Iterations 0
PIMPLE: iteration 1
smoothSolver:  Solving for Ux, Initial residual = 0.00894583, Final residual = 1.5409e-17, No Iterations 1
smoothSolver:  Solving for e, Initial residual = 0.00105301, Final residual = 5.72028e-16, No Iterations 7
smoothSolver:  Solving for p, Initial residual = 0.000289616, Final residual = 1.50151e-16, No Iterations 6
diagonal:  Solving for rho, Initial residual = 0, Final residual = 0, No Iterations 0
time step continuity errors : sum local = 3.02443e-16, global = 1.36024e-18, cumulative = -6.52692e-16
PIMPLE: iteration 2
smoothSolver:  Solving for Ux, Initial residual = 0.000359011, Final residual = 1.47354e-17, No Iterations 1
smoothSolver:  Solving for e, Initial residual = 0.000187765, Final residual = 9.07526e-17, No Iterations 7
smoothSolver:  Solving for p, Initial residual = 2.41353e-05, Final residual = 1.65812e-16, No Iterations 6
diagonal:  Solving for rho, Initial residual = 0, Final residual = 0, No Iterations 0
time step continuity errors : sum local = 3.29302e-16, global = -2.13409e-16, cumulative = -8.66101e-16
ExecutionTime = 0.1 s  ClockTime = 1 s

Time = 0.00022

Courant Number mean: 0.00471671 max: 0.300622
diagonal:  Solving for rho, Initial residual = 0, Final residual = 0, No Iterations 0
PIMPLE: iteration 1
smoothSolver:  Solving for Ux, Initial residual = 0.00850653, Final residual = 1.60616e-17, No Iterations 1
smoothSolver:  Solving for e, Initial residual = 0.0010542, Final residual = 6.20944e-16, No Iterations 7
smoothSolver:  Solving for p, Initial residual = 0.000289889, Final residual = 1.84889e-16, No Iterations 6
diagonal:  Solving for rho, Initial residual = 0, Final residual = 0, No Iterations 0
time step continuity errors : sum local = 3.68204e-16, global = 9.12597e-17, cumulative = -7.74842e-16
PIMPLE: iteration 2
smoothSolver:  Solving for Ux, Initial residual = 0.000335878, Final residual = 1.6027e-17, No Iterations 1
smoothSolver:  Solving for e, Initial residual = 0.000199376, Final residual = 8.00937e-17, No Iterations 7
smoothSolver:  Solving for p, Initial residual = 2.62796e-05, Final residual = 1.26763e-16, No Iterations 6
diagonal:  Solving for rho, Initial residual = 0, Final residual = 0, No Iterations 0
time step continuity errors : sum local = 2.57011e-16, global = -1.57046e-16, cumulative = -9.31887e-16
ExecutionTime = 0.1 s  ClockTime = 1 s

Time = 0.00023

Courant Number mean: 0.00493572 max: 0.299552
diagonal:  Solving for rho, Initial residual = 0, Final residual = 0, No Iterations 0
PIMPLE: iteration 1
smoothSolver:  Solving for Ux, Initial residual = 0.00811075, Final residual = 1.8569e-17, No Iterations 1
smoothSolver:  Solving for e, Initial residual = 0.00106239, Final residual = 6.11596e-16, No Iterations 7
smoothSolver:  Solving for p, Initial residual = 0.000289911, Final residual = 1.30428e-16, No Iterations 6
diagonal:  Solving for rho, Initial residual = 0, Final residual = 0, No Iterations 0
time step continuity errors : sum local = 2.71528e-16, global = 2.43112e-17, cumulative = -9.07576e-16
PIMPLE: iteration 2
smoothSolver:  Solving for Ux, Initial residual = 0.000319677, Final residual = 1.51907e-17, No Iterations 1
smoothSolver:  Solving for e, Initial residual = 0.000186877, Final residual = 9.1752e-17, No Iterations 7
smoothSolver:  Solving for p, Initial residual = 2.33987e-05, Final residual = 1.27451e-16, No Iterations 6
diagonal:  Solving for rho, Initial residual = 0, Final residual = 0, No Iterations 0
time step continuity errors : sum local = 2.63219e-16, global = -1.79181e-16, cumulative = -1.08676e-15
ExecutionTime = 0.1 s  ClockTime = 1 s

Time = 0.00024

Courant Number mean: 0.00515378 max: 0.299159
diagonal:  Solving for rho, Initial residual = 0, Final residual = 0, No Iterations 0
PIMPLE: iteration 1
smoothSolver:  Solving for Ux, Initial residual = 0.00776458, Final residual = 1.61113e-17, No Iterations 1
smoothSolver:  Solving for e, Initial residual = 0.00106417, Final residual = 6.30169e-16, No Iterations 7
smoothSolver:  Solving for p, Initial residual = 0.000290052, Final residual = 1.53122e-16, No Iterations 6
diagonal:  Solving for rho, Initial residual = 0, Final residual = 0, No Iterations 0
time step continuity errors : sum local = 3.12756e-16, global = 9.50189e-17, cumulative = -9.91738e-16
PIMPLE: iteration 2
smoothSolver:  Solving for Ux, Initial residual = 0.000295589, Final residual = 1.46033e-17, No Iterations 1
smoothSolver:  Solving for e, Initial residual = 0.000191924, Final residual = 8.35642e-17, No Iterations 7
smoothSolver:  Solving for p, Initial residual = 2.44746e-05, Final residual = 7.99065e-17, No Iterations 6
diagonal:  Solving for rho, Initial residual = 0, Final residual = 0, No Iterations 0
time step continuity errors : sum local = 1.77771e-16, global = -8.6808e-17, cumulative = -1.07855e-15
ExecutionTime = 0.11 s  ClockTime = 1 s

Time = 0.00025

Courant Number mean: 0.00537104 max: 0.298478
diagonal:  Solving for rho, Initial residual = 0, Final residual = 0, No Iterations 0
PIMPLE: iteration 1
smoothSolver:  Solving for Ux, Initial residual = 0.00745087, Final residual = 1.65983e-17, No Iterations 1
smoothSolver:  Solving for e, Initial residual = 0.00107293, Final residual = 5.95502e-16, No Iterations 7
smoothSolver:  Solving for p, Initial residual = 0.000290359, Final residual = 1.47097e-16, No Iterations 6
diagonal:  Solving for rho, Initial residual = 0, Final residual = 0, No Iterations 0
time step continuity errors : sum local = 3.0781e-16, global = 5.09471e-17, cumulative = -1.0276e-15
PIMPLE: iteration 2
smoothSolver:  Solving for Ux, Initial residual = 0.000285743, Final residual = 1.38986e-17, No Iterations 1
smoothSolver:  Solving for e, Initial residual = 0.000190808, Final residual = 8.11425e-17, No Iterations 7
smoothSolver:  Solving for p, Initial residual = 2.48284e-05, Final residual = 7.64518e-17, No Iterations 6
diagonal:  Solving for rho, Initial residual = 0, Final residual = 0, No Iterations 0
time step continuity errors : sum local = 1.80541e-16, global = -7.53325e-17, cumulative = -1.10293e-15
ExecutionTime = 0.11 s  ClockTime = 1 s

Time = 0.00026

Courant Number mean: 0.00558887 max: 0.297749
diagonal:  Solving for rho, Initial residual = 0, Final residual = 0, No Iterations 0
PIMPLE: iteration 1
smoothSolver:  Solving for Ux, Initial residual = 0.00716088, Final residual = 1.38273e-17, No Iterations 1
smoothSolver:  Solving for e, Initial residual = 0.00107161, Final residual = 6.21938e-16, No Iterations 7
smoothSolver:  Solving for p, Initial residual = 0.000289977, Final residual = 1.18418e-16, No Iterations 6
diagonal:  Solving for rho, Initial residual = 0, Final residual = 0, No Iterations 0
time step continuity errors : sum local = 2.55725e-16, global = 2.07746e-17, cumulative = -1.08216e-15
PIMPLE: iteration 2
smoothSolver:  Solving for Ux, Initial residual = 0.000263424, Final residual = 1.48989e-17, No Iterations 1
smoothSolver:  Solving for e, Initial residual = 0.000177543, Final residual = 7.10215e-17, No Iterations 7
smoothSolver:  Solving for p, Initial residual = 2.24882e-05, Final residual = 7.18359e-17, No Iterations 6
diagonal:  Solving for rho, Initial residual = 0, Final residual = 0, No Iterations 0
time step continuity errors : sum local = 1.67483e-16, global = -6.61323e-17, cumulative = -1.14829e-15
ExecutionTime = 0.11 s  ClockTime = 1 s

Time = 0.00027

Courant Number mean: 0.00580501 max: 0.297097
diagonal:  Solving for rho, Initial residual = 0, Final residual = 0, No Iterations 0
PIMPLE: iteration 1
smoothSolver:  Solving for Ux, Initial residual = 0.00688855, Final residual = 1.1145e-17, No Iterations 1
smoothSolver:  Solving for e, Initial residual = 0.00107439, Final residual = 6.29512e-16, No Iterations 7
smoothSolver:  Solving for p, Initial residual = 0.000289165, Final residual = 1.18145e-16, No Iterations 6
diagonal:  Solving for rho, Initial residual = 0, Final residual = 0, No Iterations 0
time step continuity errors : sum local = 2.51273e-16, global = 2.85403e-17, cumulative = -1.11975e-15
PIMPLE: iteration 2
smoothSolver:  Solving for Ux, Initial residual = 0.00025674, Final residual = 1.29081e-17, No Iterations 1
smoothSolver:  Solving for e, Initial residual = 0.000187414, Final residual = 8.04455e-17, No Iterations 7
smoothSolver:  Solving for p, Initial residual = 2.44982e-05, Final residual = 6.18177e-17, No Iterations 6
diagonal:  Solving for rho, Initial residual = 0, Final residual = 0, No Iterations 0
time step continuity errors : sum local = 1.5022e-16, global = -6.21258e-17, cumulative = -1.18187e-15
ExecutionTime = 0.12 s  ClockTime = 1 s

Time = 0.00028

Courant Number mean: 0.00602354 max: 0.296863
diagonal:  Solving for rho, Initial residual = 0, Final residual = 0, No Iterations 0
PIMPLE: iteration 1
smoothSolver:  Solving for Ux, Initial residual = 0.00663814, Final residual = 1.05522e-17, No Iterations 1
smoothSolver:  Solving for e, Initial residual = 0.00106872, Final residual = 6.47785e-16, No Iterations 7
smoothSolver:  Solving for p, Initial residual = 0.000288731, Final residual = 1.05569e-16, No Iterations 6
diagonal:  Solving for rho, Initial residual = 0, Final residual = 0, No Iterations 0
time step continuity errors : sum local = 2.25157e-16, global = 2.08735e-17, cumulative = -1.161e-15
PIMPLE: iteration 2
smoothSolver:  Solving for Ux, Initial residual = 0.000241482, Final residual = 1.09135e-17, No Iterations 1
smoothSolver:  Solving for e, Initial residual = 0.00016751, Final residual = 7.72796e-17, No Iterations 7
smoothSolver:  Solving for p, Initial residual = 2.07943e-05, Final residual = 6.25403e-17, No Iterations 6
diagonal:  Solving for rho, Initial residual = 0, Final residual = 0, No Iterations 0
time step continuity errors : sum local = 1.45669e-16, global = -4.19943e-17, cumulative = -1.203e-15
ExecutionTime = 0.12 s  ClockTime = 1 s

Time = 0.00029

Courant Number mean: 0.00623926 max: 0.296527
diagonal:  Solving for rho, Initial residual = 0, Final residual = 0, No Iterations 0
PIMPLE: iteration 1
smoothSolver:  Solving for Ux, Initial residual = 0.0064092, Final residual = 1.31033e-17, No Iterations 1
smoothSolver:  Solving for e, Initial residual = 0.00106896, Final residual = 6.22496e-16, No Iterations 7
smoothSolver:  Solving for p, Initial residual = 0.000289358, Final residual = 1.25965e-16, No Iterations 6
diagonal:  Solving for rho, Initial residual = 0, Final residual = 0, No Iterations 0
time step continuity errors : sum local = 2.67745e-16, global = 2.55725e-17, cumulative = -1.17742e-15
PIMPLE: iteration 2
smoothSolver:  Solving for Ux, Initial residual = 0.000231783, Final residual = 1.57895e-17, No Iterations 1
smoothSolver:  Solving for e, Initial residual = 0.000181325, Final residual = 7.91502e-17, No Iterations 7
smoothSolver:  Solving for p, Initial residual = 2.42392e-05, Final residual = 6.34057e-17, No Iterations 6
diagonal:  Solving for rho, Initial residual = 0, Final residual = 0, No Iterations 0
time step continuity errors : sum local = 1.49132e-16, global = -3.59103e-17, cumulative = -1.21333e-15
ExecutionTime = 0.12 s  ClockTime = 1 s

Time = 0.0003

Courant Number mean: 0.00645723 max: 0.295937
diagonal:  Solving for rho, Initial residual = 0, Final residual = 0, No Iterations 0
PIMPLE: iteration 1
smoothSolver:  Solving for Ux, Initial residual = 0.00619664, Final residual = 1.41085e-17, No Iterations 1
smoothSolver:  Solving for e, Initial residual = 0.00106925, Final residual = 6.10238e-16, No Iterations 7
smoothSolver:  Solving for p, Initial residual = 0.000289198, Final residual = 1.16606e-16, No Iterations 6
diagonal:  Solving for rho, Initial residual = 0, Final residual = 0, No Iterations 0
time step continuity errors : sum local = 2.45239e-16, global = 2.40391e-17, cumulative = -1.18929e-15
PIMPLE: iteration 2
smoothSolver:  Solving for Ux, Initial residual = 0.000221905, Final residual = 1.18628e-17, No Iterations 1
smoothSolver:  Solving for e, Initial residual = 0.000166477, Final residual = 7.21047e-17, No Iterations 7
smoothSolver:  Solving for p, Initial residual = 2.12876e-05, Final residual = 6.06949e-17, No Iterations 6
diagonal:  Solving for rho, Initial residual = 0, Final residual = 0, No Iterations 0
time step continuity errors : sum local = 1.47648e-16, global = -3.22006e-17, cumulative = -1.22149e-15
ExecutionTime = 0.13 s  ClockTime = 1 s

Time = 0.00031

Courant Number mean: 0.00667334 max: 0.295445
diagonal:  Solving for rho, Initial residual = 0, Final residual = 0, No Iterations 0
PIMPLE: iteration 1
smoothSolver:  Solving for Ux, Initial residual = 0.00599423, Final residual = 1.60028e-17, No Iterations 1
smoothSolver:  Solving for e, Initial residual = 0.00107424, Final residual = 6.42929e-16, No Iterations 7
smoothSolver:  Solving for p, Initial residual = 0.000288798, Final residual = 1.11731e-16, No Iterations 6
diagonal:  Solving for rho, Initial residual = 0, Final residual = 0, No Iterations 0
time step continuity errors : sum local = 2.37696e-16, global = 1.02142e-17, cumulative = -1.21128e-15
PIMPLE: iteration 2
smoothSolver:  Solving for Ux, Initial residual = 0.000210294, Final residual = 1.36701e-17, No Iterations 1
smoothSolver:  Solving for e, Initial residual = 0.000172797, Final residual = 7.60899e-17, No Iterations 7
smoothSolver:  Solving for p, Initial residual = 2.25588e-05, Final residual = 6.24019e-17, No Iterations 6
diagonal:  Solving for rho, Initial residual = 0, Final residual = 0, No Iterations 0
time step continuity errors : sum local = 1.48637e-16, global = -4.78804e-17, cumulative = -1.25916e-15
ExecutionTime = 0.14 s  ClockTime = 1 s

Time = 0.00032

Courant Number mean: 0.00689108 max: 0.295324
diagonal:  Solving for rho, Initial residual = 0, Final residual = 0, No Iterations 0
PIMPLE: iteration 1
smoothSolver:  Solving for Ux, Initial residual = 0.00580388, Final residual = 1.52266e-17, No Iterations 1
smoothSolver:  Solving for e, Initial residual = 0.00107548, Final residual = 6.41454e-16, No Iterations 7
smoothSolver:  Solving for p, Initial residual = 0.00028863, Final residual = 1.00561e-16, No Iterations 6
diagonal:  Solving for rho, Initial residual = 0, Final residual = 0, No Iterations 0
time step continuity errors : sum local = 2.23599e-16, global = 3.58608e-18, cumulative = -1.25557e-15
PIMPLE: iteration 2
smoothSolver:  Solving for Ux, Initial residual = 0.000204033, Final residual = 1.55389e-17, No Iterations 1
smoothSolver:  Solving for e, Initial residual = 0.000170698, Final residual = 7.56612e-17, No Iterations 7
smoothSolver:  Solving for p, Initial residual = 2.206e-05, Final residual = 5.88675e-17, No Iterations 6
diagonal:  Solving for rho, Initial residual = 0, Final residual = 0, No Iterations 0
time step continuity errors : sum local = 1.39239e-16, global = -4.54567e-17, cumulative = -1.30103e-15
ExecutionTime = 0.14 s  ClockTime = 1 s

Time = 0.00033

Courant Number mean: 0.00710859 max: 0.295089
diagonal:  Solving for rho, Initial residual = 0, Final residual = 0, No Iterations 0
PIMPLE: iteration 1
smoothSolver:  Solving for Ux, Initial residual = 0.00562794, Final residual = 1.45085e-17, No Iterations 1
smoothSolver:  Solving for e, Initial residual = 0.0010749, Final residual = 6.40246e-16, No Iterations 7
smoothSolver:  Solving for p, Initial residual = 0.000289497, Final residual = 1.20682e-16, No Iterations 6
diagonal:  Solving for rho, Initial residual = 0, Final residual = 0, No Iterations 0
time step continuity errors : sum local = 2.48676e-16, global = 1.82767e-17, cumulative = -1.28275e-15
PIMPLE: iteration 2
smoothSolver:  Solving for Ux, Initial residual = 0.000191248, Final residual = 1.0743e-17, No Iterations 1
smoothSolver:  Solving for e, Initial residual = 0.000164815, Final residual = 7.77379e-17, No Iterations 7
smoothSolver:  Solving for p, Initial residual = 2.13351e-05, Final residual = 6.0329e-17, No Iterations 6
diagonal:  Solving for rho, Initial residual = 0, Final residual = 0, No Iterations 0
time step continuity errors : sum local = 1.41861e-16, global = -4.52589e-17, cumulative = -1.32801e-15
ExecutionTime = 0.14 s  ClockTime = 1 s

Time = 0.00034

Courant Number mean: 0.00732556 max: 0.294791
diagonal:  Solving for rho, Initial residual = 0, Final residual = 0, No Iterations 0
PIMPLE: iteration 1
smoothSolver:  Solving for Ux, Initial residual = 0.00546541, Final residual = 1.62606e-17, No Iterations 1
smoothSolver:  Solving for e, Initial residual = 0.00107496, Final residual = 6.29727e-16, No Iterations 7
smoothSolver:  Solving for p, Initial residual = 0.000289118, Final residual = 9.83607e-17, No Iterations 6
diagonal:  Solving for rho, Initial residual = 0, Final residual = 0, No Iterations 0
time step continuity errors : sum local = 2.08141e-16, global = -1.31572e-17, cumulative = -1.34117e-15
PIMPLE: iteration 2
smoothSolver:  Solving for Ux, Initial residual = 0.000188037, Final residual = 1.83362e-17, No Iterations 1
smoothSolver:  Solving for e, Initial residual = 0.000167213, Final residual = 7.19399e-17, No Iterations 7
smoothSolver:  Solving for p, Initial residual = 2.23687e-05, Final residual = 5.64472e-17, No Iterations 6
diagonal:  Solving for rho, Initial residual = 0, Final residual = 0, No Iterations 0
time step continuity errors : sum local = 1.41539e-16, global = -4.45416e-17, cumulative = -1.38571e-15
ExecutionTime = 0.14 s  ClockTime = 1 s

Time = 0.00035

Courant Number mean: 0.00754302 max: 0.294801
diagonal:  Solving for rho, Initial residual = 0, Final residual = 0, No Iterations 0
PIMPLE: iteration 1
smoothSolver:  Solving for Ux, Initial residual = 0.00531127, Final residual = 1.38433e-17, No Iterations 1
smoothSolver:  Solving for e, Initial residual = 0.00107126, Final residual = 6.371e-16, No Iterations 7
smoothSolver:  Solving for p, Initial residual = 0.000288635, Final residual = 9.30986e-17, No Iterations 6
diagonal:  Solving for rho, Initial residual = 0, Final residual = 0, No Iterations 0
time step continuity errors : sum local = 1.958e-16, global = -1.12034e-17, cumulative = -1.39692e-15
PIMPLE: iteration 2
smoothSolver:  Solving for Ux, Initial residual = 0.000175727, Final residual = 1.88972e-17, No Iterations 1
smoothSolver:  Solving for e, Initial residual = 0.000154506, Final residual = 6.7207e-17, No Iterations 7
smoothSolver:  Solving for p, Initial residual = 1.98074e-05, Final residual = 5.04673e-17, No Iterations 6
diagonal:  Solving for rho, Initial residual = 0, Final residual = 0, No Iterations 0
time step continuity errors : sum local = 1.20789e-16, global = -2.8194e-17, cumulative = -1.42511e-15
ExecutionTime = 0.14 s  ClockTime = 1 s

Time = 0.00036

Courant Number mean: 0.0077592 max: 0.294886
diagonal:  Solving for rho, Initial residual = 0, Final residual = 0, No Iterations 0
PIMPLE: iteration 1
smoothSolver:  Solving for Ux, Initial residual = 0.00516291, Final residual = 1.63807e-17, No Iterations 1
smoothSolver:  Solving for e, Initial residual = 0.00107134, Final residual = 6.66972e-16, No Iterations 7
smoothSolver:  Solving for p, Initial residual = 0.000288526, Final residual = 9.45121e-17, No Iterations 6
diagonal:  Solving for rho, Initial residual = 0, Final residual = 0, No Iterations 0
time step continuity errors : sum local = 2.05099e-16, global = -1.01152e-17, cumulative = -1.43523e-15
PIMPLE: iteration 2
smoothSolver:  Solving for Ux, Initial residual = 0.000174132, Final residual = 1.79145e-17, No Iterations 1
smoothSolver:  Solving for e, Initial residual = 0.000165935, Final residual = 7.6183e-17, No Iterations 7
smoothSolver:  Solving for p, Initial residual = 2.21205e-05, Final residual = 5.82911e-17, No Iterations 6
diagonal:  Solving for rho, Initial residual = 0, Final residual = 0, No Iterations 0
time step continuity errors : sum local = 1.40525e-16, global = -2.31488e-17, cumulative = -1.45837e-15
ExecutionTime = 0.15 s  ClockTime = 1 s

Time = 0.00037

Courant Number mean: 0.00797817 max: 0.294966
diagonal:  Solving for rho, Initial residual = 0, Final residual = 0, No Iterations 0
PIMPLE: iteration 1
smoothSolver:  Solving for Ux, Initial residual = 0.00502555, Final residual = 1.54933e-17, No Iterations 1
smoothSolver:  Solving for e, Initial residual = 0.00107298, Final residual = 6.44925e-16, No Iterations 7
smoothSolver:  Solving for p, Initial residual = 0.000289192, Final residual = 1.03546e-16, No Iterations 6
diagonal:  Solving for rho, Initial residual = 0, Final residual = 0, No Iterations 0
time step continuity errors : sum local = 2.16426e-16, global = -2.00326e-18, cumulative = -1.46038e-15
PIMPLE: iteration 2
smoothSolver:  Solving for Ux, Initial residual = 0.000165731, Final residual = 1.25686e-17, No Iterations 1
smoothSolver:  Solving for e, Initial residual = 0.000147206, Final residual = 7.09687e-17, No Iterations 7
smoothSolver:  Solving for p, Initial residual = 1.87056e-05, Final residual = 4.95283e-17, No Iterations 6
diagonal:  Solving for rho, Initial residual = 0, Final residual = 0, No Iterations 0
time step continuity errors : sum local = 1.22446e-16, global = -2.4608e-17, cumulative = -1.48499e-15
ExecutionTime = 0.15 s  ClockTime = 1 s

Time = 0.00038

Courant Number mean: 0.00819391 max: 0.29502
diagonal:  Solving for rho, Initial residual = 0, Final residual = 0, No Iterations 0
PIMPLE: iteration 1
smoothSolver:  Solving for Ux, Initial residual = 0.00489331, Final residual = 1.84267e-17, No Iterations 1
smoothSolver:  Solving for e, Initial residual = 0.00107498, Final residual = 6.53609e-16, No Iterations 7
smoothSolver:  Solving for p, Initial residual = 0.000289182, Final residual = 9.8725e-17, No Iterations 6
diagonal:  Solving for rho, Initial residual = 0, Final residual = 0, No Iterations 0
time step continuity errors : sum local = 2.13038e-16, global = -4.35276e-18, cumulative = -1.48934e-15
PIMPLE: iteration 2
smoothSolver:  Solving for Ux, Initial residual = 0.000162009, Final residual = 1.83774e-17, No Iterations 1
smoothSolver:  Solving for e, Initial residual = 0.000163126, Final residual = 7.02076e-17, No Iterations 7
smoothSolver:  Solving for p, Initial residual = 2.20256e-05, Final residual = 5.36849e-17, No Iterations 6
diagonal:  Solving for rho, Initial residual = 0, Final residual = 0, No Iterations 0
time step continuity errors : sum local = 1.29e-16, global = -2.79467e-17, cumulative = -1.51728e-15
ExecutionTime = 0.15 s  ClockTime = 1 s

Time = 0.00039

Courant Number mean: 0.00841264 max: 0.29503
diagonal:  Solving for rho, Initial residual = 0, Final residual = 0, No Iterations 0
PIMPLE: iteration 1
smoothSolver:  Solving for Ux, Initial residual = 0.00477173, Final residual = 1.45073e-17, No Iterations 1
smoothSolver:  Solving for e, Initial residual = 0.001075, Final residual = 6.60355e-16, No Iterations 7
smoothSolver:  Solving for p, Initial residual = 0.000288729, Final residual = 9.20954e-17, No Iterations 6
diagonal:  Solving for rho, Initial residual = 0, Final residual = 0, No Iterations 0
time step continuity errors : sum local = 1.97086e-16, global = -2.50037e-17, cumulative = -1.54229e-15
PIMPLE: iteration 2
smoothSolver:  Solving for Ux, Initial residual = 0.000156286, Final residual = 1.37127e-17, No Iterations 1
smoothSolver:  Solving for e, Initial residual = 0.000146678, Final residual = 7.01273e-17, No Iterations 7
smoothSolver:  Solving for p, Initial residual = 1.89073e-05, Final residual = 5.83502e-17, No Iterations 6
diagonal:  Solving for rho, Initial residual = 0, Final residual = 0, No Iterations 0
time step continuity errors : sum local = 1.43171e-16, global = -4.31072e-17, cumulative = -1.5854e-15
ExecutionTime = 0.16 s  ClockTime = 1 s

Time = 0.0004

Courant Number mean: 0.0086293 max: 0.294992
diagonal:  Solving for rho, Initial residual = 0, Final residual = 0, No Iterations 0
PIMPLE: iteration 1
smoothSolver:  Solving for Ux, Initial residual = 0.00465221, Final residual = 1.82795e-17, No Iterations 1
smoothSolver:  Solving for e, Initial residual = 0.00107393, Final residual = 6.89751e-16, No Iterations 7
smoothSolver:  Solving for p, Initial residual = 0.000288773, Final residual = 9.16626e-17, No Iterations 6
diagonal:  Solving for rho, Initial residual = 0, Final residual = 0, No Iterations 0
time step continuity errors : sum local = 1.96468e-16, global = -2.58198e-17, cumulative = -1.61122e-15
PIMPLE: iteration 2
smoothSolver:  Solving for Ux, Initial residual = 0.000150772, Final residual = 1.49347e-17, No Iterations 1
smoothSolver:  Solving for e, Initial residual = 0.000157866, Final residual = 7.61032e-17, No Iterations 7
smoothSolver:  Solving for p, Initial residual = 2.11218e-05, Final residual = 5.9131e-17, No Iterations 6
diagonal:  Solving for rho, Initial residual = 0, Final residual = 0, No Iterations 0
time step continuity errors : sum local = 1.36642e-16, global = -4.18212e-17, cumulative = -1.65304e-15
ExecutionTime = 0.16 s  ClockTime = 1 s

Time = 0.00041

Courant Number mean: 0.00884847 max: 0.294903
diagonal:  Solving for rho, Initial residual = 0, Final residual = 0, No Iterations 0
PIMPLE: iteration 1
smoothSolver:  Solving for Ux, Initial residual = 0.00454063, Final residual = 1.76833e-17, No Iterations 1
smoothSolver:  Solving for e, Initial residual = 0.00107433, Final residual = 6.73043e-16, No Iterations 7
smoothSolver:  Solving for p, Initial residual = 0.000289161, Final residual = 9.88348e-17, No Iterations 6
diagonal:  Solving for rho, Initial residual = 0, Final residual = 0, No Iterations 0
time step continuity errors : sum local = 2.14299e-16, global = -2.44101e-17, cumulative = -1.67745e-15
PIMPLE: iteration 2
smoothSolver:  Solving for Ux, Initial residual = 0.000147658, Final residual = 2.12541e-17, No Iterations 1
smoothSolver:  Solving for e, Initial residual = 0.000149912, Final residual = 6.99915e-17, No Iterations 7
smoothSolver:  Solving for p, Initial residual = 1.93826e-05, Final residual = 5.33924e-17, No Iterations 6
diagonal:  Solving for rho, Initial residual = 0, Final residual = 0, No Iterations 0
time step continuity errors : sum local = 1.28876e-16, global = -3.70727e-17, cumulative = -1.71452e-15
ExecutionTime = 0.16 s  ClockTime = 1 s

Time = 0.00042

Courant Number mean: 0.00906588 max: 0.294787
diagonal:  Solving for rho, Initial residual = 0, Final residual = 0, No Iterations 0
PIMPLE: iteration 1
smoothSolver:  Solving for Ux, Initial residual = 0.00443336, Final residual = 1.4921e-17, No Iterations 1
smoothSolver:  Solving for e, Initial residual = 0.00107585, Final residual = 6.7987e-16, No Iterations 7
smoothSolver:  Solving for p, Initial residual = 0.000289316, Final residual = 9.32955e-17, No Iterations 6
diagonal:  Solving for rho, Initial residual = 0, Final residual = 0, No Iterations 0
time step continuity errors : sum local = 2.08661e-16, global = -2.45585e-17, cumulative = -1.73908e-15
PIMPLE: iteration 2
smoothSolver:  Solving for Ux, Initial residual = 0.000141221, Final residual = 1.11877e-17, No Iterations 1
smoothSolver:  Solving for e, Initial residual = 0.00015124, Final residual = 6.73638e-17, No Iterations 7
smoothSolver:  Solving for p, Initial residual = 1.99718e-05, Final residual = 9.07838e-16, No Iterations 5
diagonal:  Solving for rho, Initial residual = 0, Final residual = 0, No Iterations 0
time step continuity errors : sum local = 1.62929e-15, global = -8.04099e-16, cumulative = -2.54318e-15
ExecutionTime = 0.16 s  ClockTime = 1 s

Time = 0.00043

Courant Number mean: 0.00928386 max: 0.294644
diagonal:  Solving for rho, Initial residual = 0, Final residual = 0, No Iterations 0
PIMPLE: iteration 1
smoothSolver:  Solving for Ux, Initial residual = 0.00433282, Final residual = 1.33721e-17, No Iterations 1
smoothSolver:  Solving for e, Initial residual = 0.00107863, Final residual = 6.89714e-16, No Iterations 7
smoothSolver:  Solving for p, Initial residual = 0.000289077, Final residual = 8.95164e-17, No Iterations 6
diagonal:  Solving for rho, Initial residual = 0, Final residual = 0, No Iterations 0
time step continuity errors : sum local = 1.97235e-16, global = -2.62402e-17, cumulative = -2.56942e-15
PIMPLE: iteration 2
smoothSolver:  Solving for Ux, Initial residual = 0.000139371, Final residual = 1.38637e-17, No Iterations 1
smoothSolver:  Solving for e, Initial residual = 0.000150937, Final residual = 7.2046e-17, No Iterations 7
smoothSolver:  Solving for p, Initial residual = 1.97546e-05, Final residual = 5.56371e-17, No Iterations 6
diagonal:  Solving for rho, Initial residual = 0, Final residual = 0, No Iterations 0
time step continuity errors : sum local = 1.35974e-16, global = -3.01726e-17, cumulative = -2.59959e-15
ExecutionTime = 0.17 s  ClockTime = 1 s

Time = 0.00044

Courant Number mean: 0.00950208 max: 0.294489
diagonal:  Solving for rho, Initial residual = 0, Final residual = 0, No Iterations 0
PIMPLE: iteration 1
smoothSolver:  Solving for Ux, Initial residual = 0.00423576, Final residual = 1.49742e-17, No Iterations 1
smoothSolver:  Solving for e, Initial residual = 0.00107864, Final residual = 6.94436e-16, No Iterations 7
smoothSolver:  Solving for p, Initial residual = 0.000289273, Final residual = 8.84183e-17, No Iterations 6
diagonal:  Solving for rho, Initial residual = 0, Final residual = 0, No Iterations 0
time step continuity errors : sum local = 1.98867e-16, global = -2.62402e-17, cumulative = -2.62583e-15
PIMPLE: iteration 2
smoothSolver:  Solving for Ux, Initial residual = 0.000131969, Final residual = 1.38129e-17, No Iterations 1
smoothSolver:  Solving for e, Initial residual = 0.00014542, Final residual = 7.80704e-17, No Iterations 7
smoothSolver:  Solving for p, Initial residual = 1.89812e-05, Final residual = 5.63436e-17, No Iterations 6
diagonal:  Solving for rho, Initial residual = 0, Final residual = 0, No Iterations 0
time step continuity errors : sum local = 1.36271e-16, global = -2.59187e-17, cumulative = -2.65175e-15
ExecutionTime = 0.17 s  ClockTime = 1 s

Time = 0.00045

Courant Number mean: 0.00972012 max: 0.294415
diagonal:  Solving for rho, Initial residual = 0, Final residual = 0, No Iterations 0
PIMPLE: iteration 1
smoothSolver:  Solving for Ux, Initial residual = 0.00414367, Final residual = 1.74533e-17, No Iterations 1
smoothSolver:  Solving for e, Initial residual = 0.00107894, Final residual = 6.98909e-16, No Iterations 7
smoothSolver:  Solving for p, Initial residual = 0.000289815, Final residual = 9.03956e-17, No Iterations 6
diagonal:  Solving for rho, Initial residual = 0, Final residual = 0, No Iterations 0
time step continuity errors : sum local = 1.97062e-16, global = -2.51273e-17, cumulative = -2.67688e-15
PIMPLE: iteration 2
smoothSolver:  Solving for Ux, Initial residual = 0.000131794, Final residual = 1.35103e-17, No Iterations 1
smoothSolver:  Solving for e, Initial residual = 0.000150019, Final residual = 7.79957e-17, No Iterations 7
smoothSolver:  Solving for p, Initial residual = 1.97701e-05, Final residual = 5.25125e-17, No Iterations 6
diagonal:  Solving for rho, Initial residual = 0, Final residual = 0, No Iterations 0
time step continuity errors : sum local = 1.29668e-16, global = -3.63307e-17, cumulative = -2.71321e-15
ExecutionTime = 0.17 s  ClockTime = 1 s

Time = 0.00046

Courant Number mean: 0.00993884 max: 0.294375
diagonal:  Solving for rho, Initial residual = 0, Final residual = 0, No Iterations 0
PIMPLE: iteration 1
smoothSolver:  Solving for Ux, Initial residual = 0.00405486, Final residual = 1.78001e-17, No Iterations 1
smoothSolver:  Solving for e, Initial residual = 0.00107844, Final residual = 7.01318e-16, No Iterations 7
smoothSolver:  Solving for p, Initial residual = 0.00028987, Final residual = 9.23145e-17, No Iterations 6
diagonal:  Solving for rho, Initial residual = 0, Final residual = 0, No Iterations 0
time step continuity errors : sum local = 2.01266e-16, global = -1.97358e-17, cumulative = -2.73294e-15
PIMPLE: iteration 2
smoothSolver:  Solving for Ux, Initial residual = 0.000125363, Final residual = 1.35291e-17, No Iterations 1
smoothSolver:  Solving for e, Initial residual = 0.000138668, Final residual = 7.28903e-17, No Iterations 7
smoothSolver:  Solving for p, Initial residual = 1.79442e-05, Final residual = 9.87815e-16, No Iterations 5
diagonal:  Solving for rho, Initial residual = 0, Final residual = 0, No Iterations 0
time step continuity errors : sum local = 1.77024e-15, global = -7.29286e-16, cumulative = -3.46223e-15
ExecutionTime = 0.17 s  ClockTime = 1 s

Time = 0.00047

Courant Number mean: 0.0101562 max: 0.29433
diagonal:  Solving for rho, Initial residual = 0, Final residual = 0, No Iterations 0
PIMPLE: iteration 1
smoothSolver:  Solving for Ux, Initial residual = 0.00396974, Final residual = 1.659e-17, No Iterations 1
smoothSolver:  Solving for e, Initial residual = 0.00107896, Final residual = 7.20751e-16, No Iterations 7
smoothSolver:  Solving for p, Initial residual = 0.000289655, Final residual = 8.82944e-17, No Iterations 6
diagonal:  Solving for rho, Initial residual = 0, Final residual = 0, No Iterations 0
time step continuity errors : sum local = 1.96245e-16, global = -2.48058e-17, cumulative = -3.48703e-15
PIMPLE: iteration 2
smoothSolver:  Solving for Ux, Initial residual = 0.000124764, Final residual = 1.69927e-17, No Iterations 1
smoothSolver:  Solving for e, Initial residual = 0.00015003, Final residual = 7.72665e-17, No Iterations 7
smoothSolver:  Solving for p, Initial residual = 1.99955e-05, Final residual = 5.53008e-17, No Iterations 6
diagonal:  Solving for rho, Initial residual = 0, Final residual = 0, No Iterations 0
time step continuity errors : sum local = 1.37409e-16, global = -4.53578e-17, cumulative = -3.53239e-15
ExecutionTime = 0.17 s  ClockTime = 1 s

Time = 0.00048

Courant Number mean: 0.0103752 max: 0.294284
diagonal:  Solving for rho, Initial residual = 0, Final residual = 0, No Iterations 0
PIMPLE: iteration 1
smoothSolver:  Solving for Ux, Initial residual = 0.00388956, Final residual = 1.5266e-17, No Iterations 1
smoothSolver:  Solving for e, Initial residual = 0.00107942, Final residual = 7.20926e-16, No Iterations 7
smoothSolver:  Solving for p, Initial residual = 0.000289819, Final residual = 8.72848e-17, No Iterations 6
diagonal:  Solving for rho, Initial residual = 0, Final residual = 0, No Iterations 0
time step continuity errors : sum local = 2.02997e-16, global = -2.89855e-17, cumulative = -3.56138e-15
PIMPLE: iteration 2
smoothSolver:  Solving for Ux, Initial residual = 0.000120332, Final residual = 1.61283e-17, No Iterations 1
smoothSolver:  Solving for e, Initial residual = 0.000134887, Final residual = 8.02544e-17, No Iterations 7
smoothSolver:  Solving for p, Initial residual = 1.74449e-05, Final residual = 5.14547e-17, No Iterations 6
diagonal:  Solving for rho, Initial residual = 0, Final residual = 0, No Iterations 0
time step continuity errors : sum local = 1.32215e-16, global = -3.12608e-17, cumulative = -3.59264e-15
ExecutionTime = 0.19 s  ClockTime = 1 s

Time = 0.00049

Courant Number mean: 0.0105924 max: 0.294241
diagonal:  Solving for rho, Initial residual = 0, Final residual = 0, No Iterations 0
PIMPLE: iteration 1
smoothSolver:  Solving for Ux, Initial residual = 0.00381189, Final residual = 1.85259e-17, No Iterations 1
smoothSolver:  Solving for e, Initial residual = 0.00107939, Final residual = 7.18935e-16, No Iterations 7
smoothSolver:  Solving for p, Initial residual = 0.000290208, Final residual = 9.15983e-17, No Iterations 6
diagonal:  Solving for rho, Initial residual = 0, Final residual = 0, No Iterations 0
time step continuity errors : sum local = 2.07869e-16, global = -2.35198e-17, cumulative = -3.61616e-15
PIMPLE: iteration 2
smoothSolver:  Solving for Ux, Initial residual = 0.000118424, Final residual = 1.38278e-17, No Iterations 1
smoothSolver:  Solving for e, Initial residual = 0.000147147, Final residual = 8.32775e-17, No Iterations 7
smoothSolver:  Solving for p, Initial residual = 1.9706e-05, Final residual = 5.17506e-17, No Iterations 6
diagonal:  Solving for rho, Initial residual = 0, Final residual = 0, No Iterations 0
time step continuity errors : sum local = 1.31399e-16, global = -3.36597e-17, cumulative = -3.64982e-15
ExecutionTime = 0.19 s  ClockTime = 1 s

Time = 0.0005

Courant Number mean: 0.0108118 max: 0.294209
diagonal:  Solving for rho, Initial residual = 0, Final residual = 0, No Iterations 0
PIMPLE: iteration 1
smoothSolver:  Solving for Ux, Initial residual = 0.00373701, Final residual = 1.59127e-17, No Iterations 1
smoothSolver:  Solving for e, Initial residual = 0.00107963, Final residual = 7.23375e-16, No Iterations 7
smoothSolver:  Solving for p, Initial residual = 0.000290172, Final residual = 9.32984e-17, No Iterations 6
diagonal:  Solving for rho, Initial residual = 0, Final residual = 0, No Iterations 0
time step continuity errors : sum local = 1.98669e-16, global = -3.70727e-17, cumulative = -3.68689e-15
PIMPLE: iteration 2
smoothSolver:  Solving for Ux, Initial residual = 0.000115417, Final residual = 1.57849e-17, No Iterations 1
smoothSolver:  Solving for e, Initial residual = 0.000136365, Final residual = 7.65558e-17, No Iterations 7
smoothSolver:  Solving for p, Initial residual = 1.73763e-05, Final residual = 5.29048e-17, No Iterations 6
diagonal:  Solving for rho, Initial residual = 0, Final residual = 0, No Iterations 0
time step continuity errors : sum local = 1.36148e-16, global = -4.36513e-17, cumulative = -3.73054e-15
ExecutionTime = 0.19 s  ClockTime = 1 s

Time = 0.00051

Courant Number mean: 0.0110291 max: 0.294191
diagonal:  Solving for rho, Initial residual = 0, Final residual = 0, No Iterations 0
PIMPLE: iteration 1
smoothSolver:  Solving for Ux, Initial residual = 0.00366476, Final residual = 1.60286e-17, No Iterations 1
smoothSolver:  Solving for e, Initial residual = 0.00107983, Final residual = 7.38204e-16, No Iterations 7
smoothSolver:  Solving for p, Initial residual = 0.00029025, Final residual = 9.17633e-17, No Iterations 6
diagonal:  Solving for rho, Initial residual = 0, Final residual = 0, No Iterations 0
time step continuity errors : sum local = 1.95083e-16, global = -2.94801e-17, cumulative = -3.76002e-15
PIMPLE: iteration 2
smoothSolver:  Solving for Ux, Initial residual = 0.000112185, Final residual = 1.5955e-17, No Iterations 1
smoothSolver:  Solving for e, Initial residual = 0.000145843, Final residual = 8.67857e-17, No Iterations 7
smoothSolver:  Solving for p, Initial residual = 1.96444e-05, Final residual = 5.02648e-17, No Iterations 6
diagonal:  Solving for rho, Initial residual = 0, Final residual = 0, No Iterations 0
time step continuity errors : sum local = 1.23262e-16, global = -2.6265e-17, cumulative = -3.78629e-15
ExecutionTime = 0.19 s  ClockTime = 1 s

Time = 0.00052

Courant Number mean: 0.0112485 max: 0.294183
diagonal:  Solving for rho, Initial residual = 0, Final residual = 0, No Iterations 0
PIMPLE: iteration 1
smoothSolver:  Solving for Ux, Initial residual = 0.00359674, Final residual = 1.6345e-17, No Iterations 1
smoothSolver:  Solving for e, Initial residual = 0.00108102, Final residual = 7.44437e-16, No Iterations 7
smoothSolver:  Solving for p, Initial residual = 0.000290365, Final residual = 9.30336e-17, No Iterations 6
diagonal:  Solving for rho, Initial residual = 0, Final residual = 0, No Iterations 0
time step continuity errors : sum local = 2.15981e-16, global = -2.81693e-17, cumulative = -3.81446e-15
PIMPLE: iteration 2
smoothSolver:  Solving for Ux, Initial residual = 0.000110763, Final residual = 1.62961e-17, No Iterations 1
smoothSolver:  Solving for e, Initial residual = 0.000139318, Final residual = 8.74316e-17, No Iterations 7
smoothSolver:  Solving for p, Initial residual = 1.77771e-05, Final residual = 6.0373e-17, No Iterations 6
diagonal:  Solving for rho, Initial residual = 0, Final residual = 0, No Iterations 0
time step continuity errors : sum local = 1.49799e-16, global = -5.69075e-17, cumulative = -3.87136e-15
ExecutionTime = 0.2 s  ClockTime = 1 s

Time = 0.00053

Courant Number mean: 0.0114665 max: 0.294186
diagonal:  Solving for rho, Initial residual = 0, Final residual = 0, No Iterations 0
PIMPLE: iteration 1
smoothSolver:  Solving for Ux, Initial residual = 0.00353052, Final residual = 1.51623e-17, No Iterations 1
smoothSolver:  Solving for e, Initial residual = 0.00108097, Final residual = 7.30242e-16, No Iterations 7
smoothSolver:  Solving for p, Initial residual = 0.000290563, Final residual = 9.70429e-17, No Iterations 6
diagonal:  Solving for rho, Initial residual = 0, Final residual = 0, No Iterations 0
time step continuity errors : sum local = 2.16847e-16, global = -2.17144e-17, cumulative = -3.89308e-15
PIMPLE: iteration 2
smoothSolver:  Solving for Ux, Initial residual = 0.00010682, Final residual = 1.52438e-17, No Iterations 1
smoothSolver:  Solving for e, Initial residual = 0.00014003, Final residual = 9.19775e-17, No Iterations 7
smoothSolver:  Solving for p, Initial residual = 1.84956e-05, Final residual = 5.45574e-17, No Iterations 6
diagonal:  Solving for rho, Initial residual = 0, Final residual = 0, No Iterations 0
time step continuity errors : sum local = 1.39907e-16, global = -3.73695e-17, cumulative = -3.93045e-15
ExecutionTime = 0.2 s  ClockTime = 1 s

Time = 0.00054

Courant Number mean: 0.0116857 max: 0.294187
diagonal:  Solving for rho, Initial residual = 0, Final residual = 0, No Iterations 0
PIMPLE: iteration 1
smoothSolver:  Solving for Ux, Initial residual = 0.00346642, Final residual = 1.43037e-17, No Iterations 1
smoothSolver:  Solving for e, Initial residual = 0.00107966, Final residual = 7.40603e-16, No Iterations 7
smoothSolver:  Solving for p, Initial residual = 0.000290742, Final residual = 9.40226e-17, No Iterations 6
diagonal:  Solving for rho, Initial residual = 0, Final residual = 0, No Iterations 0
time step continuity errors : sum local = 2.16525e-16, global = -2.36187e-17, cumulative = -3.95407e-15
PIMPLE: iteration 2
smoothSolver:  Solving for Ux, Initial residual = 0.000106, Final residual = 1.51707e-17, No Iterations 1
smoothSolver:  Solving for e, Initial residual = 0.000141274, Final residual = 8.15532e-17, No Iterations 7
smoothSolver:  Solving for p, Initial residual = 1.83339e-05, Final residual = 5.41782e-17, No Iterations 6
diagonal:  Solving for rho, Initial residual = 0, Final residual = 0, No Iterations 0
time step continuity errors : sum local = 1.37087e-16, global = -2.90597e-17, cumulative = -3.98313e-15
ExecutionTime = 0.2 s  ClockTime = 1 s

Time = 0.00055

Courant Number mean: 0.0119043 max: 0.294186
diagonal:  Solving for rho, Initial residual = 0, Final residual = 0, No Iterations 0
PIMPLE: iteration 1
smoothSolver:  Solving for Ux, Initial residual = 0.00340524, Final residual = 1.64722e-17, No Iterations 1
smoothSolver:  Solving for e, Initial residual = 0.00107942, Final residual = 7.52658e-16, No Iterations 7
smoothSolver:  Solving for p, Initial residual = 0.00029087, Final residual = 9.43182e-17, No Iterations 6
diagonal:  Solving for rho, Initial residual = 0, Final residual = 0, No Iterations 0
time step continuity errors : sum local = 2.09304e-16, global = -2.75263e-17, cumulative = -4.01065e-15
PIMPLE: iteration 2
smoothSolver:  Solving for Ux, Initial residual = 0.000101191, Final residual = 1.24162e-17, No Iterations 1
smoothSolver:  Solving for e, Initial residual = 0.000137642, Final residual = 9.43882e-17, No Iterations 7
smoothSolver:  Solving for p, Initial residual = 1.82547e-05, Final residual = 5.14797e-17, No Iterations 6
diagonal:  Solving for rho, Initial residual = 0, Final residual = 0, No Iterations 0
time step continuity errors : sum local = 1.33996e-16, global = -3.79878e-17, cumulative = -4.04864e-15
ExecutionTime = 0.21 s  ClockTime = 1 s

Time = 0.00056

Courant Number mean: 0.0121228 max: 0.294177
diagonal:  Solving for rho, Initial residual = 0, Final residual = 0, No Iterations 0
PIMPLE: iteration 1
smoothSolver:  Solving for Ux, Initial residual = 0.00334638, Final residual = 1.28766e-17, No Iterations 1
smoothSolver:  Solving for e, Initial residual = 0.00107966, Final residual = 7.51601e-16, No Iterations 7
smoothSolver:  Solving for p, Initial residual = 0.000291025, Final residual = 9.06721e-17, No Iterations 6
diagonal:  Solving for rho, Initial residual = 0, Final residual = 0, No Iterations 0
time step continuity errors : sum local = 2.03022e-16, global = -3.83587e-17, cumulative = -4.087e-15
PIMPLE: iteration 2
smoothSolver:  Solving for Ux, Initial residual = 0.000101728, Final residual = 1.16579e-17, No Iterations 1
smoothSolver:  Solving for e, Initial residual = 0.000139876, Final residual = 8.56231e-17, No Iterations 7
smoothSolver:  Solving for p, Initial residual = 1.82308e-05, Final residual = 5.93533e-17, No Iterations 6
diagonal:  Solving for rho, Initial residual = 0, Final residual = 0, No Iterations 0
time step continuity errors : sum local = 1.4003e-16, global = -4.53083e-17, cumulative = -4.13231e-15
ExecutionTime = 0.21 s  ClockTime = 1 s

Time = 0.00057

Courant Number mean: 0.0123417 max: 0.294145
diagonal:  Solving for rho, Initial residual = 0, Final residual = 0, No Iterations 0
PIMPLE: iteration 1
smoothSolver:  Solving for Ux, Initial residual = 0.00328983, Final residual = 1.49907e-17, No Iterations 1
smoothSolver:  Solving for e, Initial residual = 0.00108006, Final residual = 7.54962e-16, No Iterations 7
smoothSolver:  Solving for p, Initial residual = 0.00029116, Final residual = 9.39087e-17, No Iterations 6
diagonal:  Solving for rho, Initial residual = 0, Final residual = 0, No Iterations 0
time step continuity errors : sum local = 2.16575e-16, global = -2.44101e-17, cumulative = -4.15672e-15
PIMPLE: iteration 2
smoothSolver:  Solving for Ux, Initial residual = 9.75079e-05, Final residual = 1.86092e-17, No Iterations 1
smoothSolver:  Solving for e, Initial residual = 0.000129913, Final residual = 9.06133e-17, No Iterations 7
smoothSolver:  Solving for p, Initial residual = 1.68091e-05, Final residual = 5.0359e-17, No Iterations 6
diagonal:  Solving for rho, Initial residual = 0, Final residual = 0, No Iterations 0
time step continuity errors : sum local = 1.42899e-16, global = -3.72458e-17, cumulative = -4.19396e-15
ExecutionTime = 0.21 s  ClockTime = 1 s

Time = 0.00058

Courant Number mean: 0.0125601 max: 0.294114
diagonal:  Solving for rho, Initial residual = 0, Final residual = 0, No Iterations 0
PIMPLE: iteration 1
smoothSolver:  Solving for Ux, Initial residual = 0.00323396, Final residual = 1.37968e-17, No Iterations 1
smoothSolver:  Solving for e, Initial residual = 0.00107978, Final residual = 7.68655e-16, No Iterations 7
smoothSolver:  Solving for p, Initial residual = 0.000291295, Final residual = 9.85275e-17, No Iterations 6
diagonal:  Solving for rho, Initial residual = 0, Final residual = 0, No Iterations 0
time step continuity errors : sum local = 2.11159e-16, global = -1.37508e-17, cumulative = -4.20771e-15
PIMPLE: iteration 2
smoothSolver:  Solving for Ux, Initial residual = 9.73251e-05, Final residual = 1.2668e-17, No Iterations 1
smoothSolver:  Solving for e, Initial residual = 0.0001415, Final residual = 8.45248e-17, No Iterations 7
smoothSolver:  Solving for p, Initial residual = 1.86939e-05, Final residual = 5.35912e-17, No Iterations 6
diagonal:  Solving for rho, Initial residual = 0, Final residual = 0, No Iterations 0
time step continuity errors : sum local = 1.34243e-16, global = -3.16565e-17, cumulative = -4.23937e-15
ExecutionTime = 0.21 s  ClockTime = 1 s

Time = 0.00059

Courant Number mean: 0.0127796 max: 0.294081
diagonal:  Solving for rho, Initial residual = 0, Final residual = 0, No Iterations 0
PIMPLE: iteration 1
smoothSolver:  Solving for Ux, Initial residual = 0.00318112, Final residual = 1.87338e-17, No Iterations 1
smoothSolver:  Solving for e, Initial residual = 0.0010789, Final residual = 7.84435e-16, No Iterations 7
smoothSolver:  Solving for p, Initial residual = 0.000291419, Final residual = 9.5907e-17, No Iterations 6
diagonal:  Solving for rho, Initial residual = 0, Final residual = 0, No Iterations 0
time step continuity errors : sum local = 2.12717e-16, global = -2.28767e-17, cumulative = -4.26225e-15
PIMPLE: iteration 2
smoothSolver:  Solving for Ux, Initial residual = 9.47979e-05, Final residual = 1.42374e-17, No Iterations 1
smoothSolver:  Solving for e, Initial residual = 0.000128625, Final residual = 9.75741e-17, No Iterations 7
smoothSolver:  Solving for p, Initial residual = 1.6809e-05, Final residual = 5.51047e-17, No Iterations 6
diagonal:  Solving for rho, Initial residual = 0, Final residual = 0, No Iterations 0
time step continuity errors : sum local = 1.37434e-16, global = -3.70232e-17, cumulative = -4.29927e-15
ExecutionTime = 0.22 s  ClockTime = 1 s

Time = 0.0006

Courant Number mean: 0.0129974 max: 0.294046
diagonal:  Solving for rho, Initial residual = 0, Final residual = 0, No Iterations 0
PIMPLE: iteration 1
smoothSolver:  Solving for Ux, Initial residual = 0.00313017, Final residual = 1.71865e-17, No Iterations 1
smoothSolver:  Solving for e, Initial residual = 0.00107793, Final residual = 7.69853e-16, No Iterations 7
smoothSolver:  Solving for p, Initial residual = 0.000291615, Final residual = 9.21533e-17, No Iterations 6
diagonal:  Solving for rho, Initial residual = 0, Final residual = 0, No Iterations 0
time step continuity errors : sum local = 2.08636e-16, global = -3.08651e-17, cumulative = -4.33014e-15
PIMPLE: iteration 2
smoothSolver:  Solving for Ux, Initial residual = 9.35107e-05, Final residual = 1.55106e-17, No Iterations 1
smoothSolver:  Solving for e, Initial residual = 0.000138426, Final residual = 8.51477e-17, No Iterations 7
smoothSolver:  Solving for p, Initial residual = 1.843e-05, Final residual = 5.81368e-17, No Iterations 6
diagonal:  Solving for rho, Initial residual = 0, Final residual = 0, No Iterations 0
time step continuity errors : sum local = 1.4374e-16, global = -4.73363e-17, cumulative = -4.37747e-15
ExecutionTime = 0.22 s  ClockTime = 1 s

Time = 0.00061

Courant Number mean: 0.0132168 max: 0.294005
diagonal:  Solving for rho, Initial residual = 0, Final residual = 0, No Iterations 0
PIMPLE: iteration 1
smoothSolver:  Solving for Ux, Initial residual = 0.00308107, Final residual = 1.74888e-17, No Iterations 1
smoothSolver:  Solving for e, Initial residual = 0.00107796, Final residual = 7.64544e-16, No Iterations 7
smoothSolver:  Solving for p, Initial residual = 0.000291793, Final residual = 9.37046e-17, No Iterations 6
diagonal:  Solving for rho, Initial residual = 0, Final residual = 0, No Iterations 0
time step continuity errors : sum local = 2.09897e-16, global = -3.34619e-17, cumulative = -4.41093e-15
PIMPLE: iteration 2
smoothSolver:  Solving for Ux, Initial residual = 9.17633e-05, Final residual = 1.50688e-17, No Iterations 1
smoothSolver:  Solving for e, Initial residual = 0.000131642, Final residual = 8.55964e-17, No Iterations 7
smoothSolver:  Solving for p, Initial residual = 1.67416e-05, Final residual = 5.37156e-17, No Iterations 6
diagonal:  Solving for rho, Initial residual = 0, Final residual = 0, No Iterations 0
time step continuity errors : sum local = 1.36791e-16, global = -3.79136e-17, cumulative = -4.44885e-15
ExecutionTime = 0.22 s  ClockTime = 1 s

Time = 0.00062

Courant Number mean: 0.0134345 max: 0.293974
diagonal:  Solving for rho, Initial residual = 0, Final residual = 0, No Iterations 0
PIMPLE: iteration 1
smoothSolver:  Solving for Ux, Initial residual = 0.00303212, Final residual = 1.36754e-17, No Iterations 1
smoothSolver:  Solving for e, Initial residual = 0.00107814, Final residual = 7.82215e-16, No Iterations 7
smoothSolver:  Solving for p, Initial residual = 0.000291986, Final residual = 9.37963e-17, No Iterations 6
diagonal:  Solving for rho, Initial residual = 0, Final residual = 0, No Iterations 0
time step continuity errors : sum local = 2.1284e-16, global = -2.3594e-17, cumulative = -4.47244e-15
PIMPLE: iteration 2
smoothSolver:  Solving for Ux, Initial residual = 8.95119e-05, Final residual = 1.78798e-17, No Iterations 1
smoothSolver:  Solving for e, Initial residual = 0.000138611, Final residual = 9.91945e-17, No Iterations 7
smoothSolver:  Solving for p, Initial residual = 1.85934e-05, Final residual = 5.06707e-17, No Iterations 6
diagonal:  Solving for rho, Initial residual = 0, Final residual = 0, No Iterations 0
time step continuity errors : sum local = 1.3407e-16, global = -1.7881e-17, cumulative = -4.49032e-15
ExecutionTime = 0.22 s  ClockTime = 1 s

Time = 0.00063

Courant Number mean: 0.0136541 max: 0.293978
diagonal:  Solving for rho, Initial residual = 0, Final residual = 0, No Iterations 0
PIMPLE: iteration 1
smoothSolver:  Solving for Ux, Initial residual = 0.00298611, Final residual = 1.46895e-17, No Iterations 1
smoothSolver:  Solving for e, Initial residual = 0.00107799, Final residual = 7.91293e-16, No Iterations 7
[...]
PIMPLE: iteration 1
smoothSolver:  Solving for Ux, Initial residual = 0.000522952, Final residual = 3.13942e-17, No Iterations 1
smoothSolver:  Solving for e, Initial residual = 0.000932734, Final residual = 8.31991e-16, No Iterations 7
smoothSolver:  Solving for p, Initial residual = 0.000436845, Final residual = 1.35898e-16, No Iterations 6
diagonal:  Solving for rho, Initial residual = 0, Final residual = 0, No Iterations 0
time step continuity errors : sum local = 2.08488e-16, global = -6.1285e-17, cumulative = 2.26924e-13
PIMPLE: iteration 2
smoothSolver:  Solving for Ux, Initial residual = 1.30813e-05, Final residual = 3.22286e-17, No Iterations 1
smoothSolver:  Solving for e, Initial residual = 9.84635e-05, Final residual = 8.51658e-17, No Iterations 7
smoothSolver:  Solving for p, Initial residual = 2.2999e-05, Final residual = 9.55655e-16, No Iterations 5
diagonal:  Solving for rho, Initial residual = 0, Final residual = 0, No Iterations 0
time step continuity errors : sum local = 1.16105e-15, global = 8.14363e-16, cumulative = 2.27739e-13
ExecutionTime = 2.11 s  ClockTime = 7 s

Time = 0.00686

Courant Number mean: 0.150622 max: 0.293323
diagonal:  Solving for rho, Initial residual = 0, Final residual = 0, No Iterations 0
PIMPLE: iteration 1
smoothSolver:  Solving for Ux, Initial residual = 0.000522905, Final residual = 3.16065e-17, No Iterations 1
smoothSolver:  Solving for e, Initial residual = 0.000932611, Final residual = 8.32584e-16, No Iterations 7
smoothSolver:  Solving for p, Initial residual = 0.000437217, Final residual = 1.35811e-16, No Iterations 6
diagonal:  Solving for rho, Initial residual = 0, Final residual = 0, No Iterations 0
time step continuity errors : sum local = 2.09749e-16, global = -7.26862e-17, cumulative = 2.27666e-13
PIMPLE: iteration 2
smoothSolver:  Solving for Ux, Initial residual = 1.31226e-05, Final residual = 3.08259e-17, No Iterations 1
smoothSolver:  Solving for e, Initial residual = 8.78525e-05, Final residual = 8.60538e-17, No Iterations 7
smoothSolver:  Solving for p, Initial residual = 2.00783e-05, Final residual = 7.55994e-17, No Iterations 6
diagonal:  Solving for rho, Initial residual = 0, Final residual = 0, No Iterations 0
time step continuity errors : sum local = 1.49626e-16, global = -3.49705e-17, cumulative = 2.27631e-13
ExecutionTime = 2.11 s  ClockTime = 7 s

Time = 0.00687

Courant Number mean: 0.150841 max: 0.293323
diagonal:  Solving for rho, Initial residual = 0, Final residual = 0, No Iterations 0
PIMPLE: iteration 1
smoothSolver:  Solving for Ux, Initial residual = 0.000522736, Final residual = 2.95212e-17, No Iterations 1
smoothSolver:  Solving for e, Initial residual = 0.000932289, Final residual = 8.34022e-16, No Iterations 7
smoothSolver:  Solving for p, Initial residual = 0.000437574, Final residual = 1.37198e-16, No Iterations 6
diagonal:  Solving for rho, Initial residual = 0, Final residual = 0, No Iterations 0
time step continuity errors : sum local = 2.15041e-16, global = -5.94795e-17, cumulative = 2.27572e-13
PIMPLE: iteration 2
smoothSolver:  Solving for Ux, Initial residual = 1.30514e-05, Final residual = 3.20396e-17, No Iterations 1
smoothSolver:  Solving for e, Initial residual = 9.44308e-05, Final residual = 7.95705e-17, No Iterations 7
smoothSolver:  Solving for p, Initial residual = 2.20644e-05, Final residual = 7.41037e-17, No Iterations 6
diagonal:  Solving for rho, Initial residual = 0, Final residual = 0, No Iterations 0
time step continuity errors : sum local = 1.51209e-16, global = -2.50779e-17, cumulative = 2.27547e-13
ExecutionTime = 2.12 s  ClockTime = 7 s

Time = 0.00688

Courant Number mean: 0.151062 max: 0.293323
diagonal:  Solving for rho, Initial residual = 0, Final residual = 0, No Iterations 0
PIMPLE: iteration 1
smoothSolver:  Solving for Ux, Initial residual = 0.000522678, Final residual = 2.98472e-17, No Iterations 1
smoothSolver:  Solving for e, Initial residual = 0.000932191, Final residual = 8.35436e-16, No Iterations 7
smoothSolver:  Solving for p, Initial residual = 0.000437945, Final residual = 1.37682e-16, No Iterations 6
diagonal:  Solving for rho, Initial residual = 0, Final residual = 0, No Iterations 0
time step continuity errors : sum local = 2.17366e-16, global = -6.29914e-17, cumulative = 2.27484e-13
PIMPLE: iteration 2
smoothSolver:  Solving for Ux, Initial residual = 1.31229e-05, Final residual = 3.18868e-17, No Iterations 1
smoothSolver:  Solving for e, Initial residual = 9.33405e-05, Final residual = 8.95775e-17, No Iterations 7
smoothSolver:  Solving for p, Initial residual = 2.08627e-05, Final residual = 9.42364e-16, No Iterations 5
diagonal:  Solving for rho, Initial residual = 0, Final residual = 0, No Iterations 0
time step continuity errors : sum local = 1.14653e-15, global = 8.10876e-16, cumulative = 2.28295e-13
ExecutionTime = 2.12 s  ClockTime = 7 s

Time = 0.00689

Courant Number mean: 0.151282 max: 0.293323
diagonal:  Solving for rho, Initial residual = 0, Final residual = 0, No Iterations 0
PIMPLE: iteration 1
smoothSolver:  Solving for Ux, Initial residual = 0.000522538, Final residual = 3.23105e-17, No Iterations 1
smoothSolver:  Solving for e, Initial residual = 0.000931907, Final residual = 8.34726e-16, No Iterations 7
smoothSolver:  Solving for p, Initial residual = 0.000438305, Final residual = 1.34217e-16, No Iterations 6
diagonal:  Solving for rho, Initial residual = 0, Final residual = 0, No Iterations 0
time step continuity errors : sum local = 2.20309e-16, global = -6.24226e-17, cumulative = 2.28232e-13
PIMPLE: iteration 2
smoothSolver:  Solving for Ux, Initial residual = 1.28757e-05, Final residual = 2.99281e-17, No Iterations 1
smoothSolver:  Solving for e, Initial residual = 9.586e-05, Final residual = 8.87334e-17, No Iterations 7
smoothSolver:  Solving for p, Initial residual = 2.24557e-05, Final residual = 7.50233e-17, No Iterations 6
diagonal:  Solving for rho, Initial residual = 0, Final residual = 0, No Iterations 0
time step continuity errors : sum local = 1.49775e-16, global = -3.14092e-17, cumulative = 2.28201e-13
ExecutionTime = 2.12 s  ClockTime = 7 s

Time = 0.0069

Courant Number mean: 0.151502 max: 0.293322
diagonal:  Solving for rho, Initial residual = 0, Final residual = 0, No Iterations 0
PIMPLE: iteration 1
smoothSolver:  Solving for Ux, Initial residual = 0.000522466, Final residual = 2.84136e-17, No Iterations 1
smoothSolver:  Solving for e, Initial residual = 0.000931743, Final residual = 8.33602e-16, No Iterations 7
smoothSolver:  Solving for p, Initial residual = 0.000438683, Final residual = 1.37624e-16, No Iterations 6
diagonal:  Solving for rho, Initial residual = 0, Final residual = 0, No Iterations 0
time step continuity errors : sum local = 2.08982e-16, global = -5.17385e-17, cumulative = 2.28149e-13
PIMPLE: iteration 2
smoothSolver:  Solving for Ux, Initial residual = 1.32011e-05, Final residual = 3.13811e-17, No Iterations 1
smoothSolver:  Solving for e, Initial residual = 9.25934e-05, Final residual = 8.50962e-17, No Iterations 7
smoothSolver:  Solving for p, Initial residual = 2.07875e-05, Final residual = 7.25263e-17, No Iterations 6
diagonal:  Solving for rho, Initial residual = 0, Final residual = 0, No Iterations 0
time step continuity errors : sum local = 1.45372e-16, global = -2.01315e-17, cumulative = 2.28129e-13
ExecutionTime = 2.12 s  ClockTime = 7 s

Time = 0.00691

Courant Number mean: 0.151722 max: 0.293323
diagonal:  Solving for rho, Initial residual = 0, Final residual = 0, No Iterations 0
PIMPLE: iteration 1
smoothSolver:  Solving for Ux, Initial residual = 0.00052235, Final residual = 3.06222e-17, No Iterations 1
smoothSolver:  Solving for e, Initial residual = 0.00093152, Final residual = 8.30364e-16, No Iterations 7
smoothSolver:  Solving for p, Initial residual = 0.000439042, Final residual = 1.36202e-16, No Iterations 6
diagonal:  Solving for rho, Initial residual = 0, Final residual = 0, No Iterations 0
time step continuity errors : sum local = 2.14027e-16, global = -4.99579e-17, cumulative = 2.28079e-13
PIMPLE: iteration 2
smoothSolver:  Solving for Ux, Initial residual = 1.28001e-05, Final residual = 3.2294e-17, No Iterations 1
smoothSolver:  Solving for e, Initial residual = 8.83796e-05, Final residual = 8.40576e-17, No Iterations 7
smoothSolver:  Solving for p, Initial residual = 2.00438e-05, Final residual = 9.75083e-16, No Iterations 5
diagonal:  Solving for rho, Initial residual = 0, Final residual = 0, No Iterations 0
time step continuity errors : sum local = 1.1845e-15, global = 8.36324e-16, cumulative = 2.28915e-13
ExecutionTime = 2.13 s  ClockTime = 7 s

Time = 0.00692

Courant Number mean: 0.151942 max: 0.293322
diagonal:  Solving for rho, Initial residual = 0, Final residual = 0, No Iterations 0
PIMPLE: iteration 1
smoothSolver:  Solving for Ux, Initial residual = 0.000522232, Final residual = 3.22279e-17, No Iterations 1
smoothSolver:  Solving for e, Initial residual = 0.000931292, Final residual = 8.32139e-16, No Iterations 7
smoothSolver:  Solving for p, Initial residual = 0.000439413, Final residual = 1.33053e-16, No Iterations 6
diagonal:  Solving for rho, Initial residual = 0, Final residual = 0, No Iterations 0
time step continuity errors : sum local = 2.15116e-16, global = -5.87623e-17, cumulative = 2.28856e-13
PIMPLE: iteration 2
smoothSolver:  Solving for Ux, Initial residual = 1.31144e-05, Final residual = 3.02573e-17, No Iterations 1
smoothSolver:  Solving for e, Initial residual = 9.71875e-05, Final residual = 8.79462e-17, No Iterations 7
smoothSolver:  Solving for p, Initial residual = 2.24381e-05, Final residual = 9.66837e-16, No Iterations 5
diagonal:  Solving for rho, Initial residual = 0, Final residual = 0, No Iterations 0
time step continuity errors : sum local = 1.17873e-15, global = 8.14536e-16, cumulative = 2.29671e-13
ExecutionTime = 2.13 s  ClockTime = 7 s

Time = 0.00693

Courant Number mean: 0.152163 max: 0.293322
diagonal:  Solving for rho, Initial residual = 0, Final residual = 0, No Iterations 0
PIMPLE: iteration 1
smoothSolver:  Solving for Ux, Initial residual = 0.000522171, Final residual = 2.92248e-17, No Iterations 1
smoothSolver:  Solving for e, Initial residual = 0.000931129, Final residual = 8.34202e-16, No Iterations 7
smoothSolver:  Solving for p, Initial residual = 0.000439781, Final residual = 1.34163e-16, No Iterations 6
diagonal:  Solving for rho, Initial residual = 0, Final residual = 0, No Iterations 0
time step continuity errors : sum local = 2.12296e-16, global = -7.6025e-17, cumulative = 2.29595e-13
PIMPLE: iteration 2
smoothSolver:  Solving for Ux, Initial residual = 1.29189e-05, Final residual = 3.13269e-17, No Iterations 1
smoothSolver:  Solving for e, Initial residual = 9.02568e-05, Final residual = 8.6393e-17, No Iterations 7
smoothSolver:  Solving for p, Initial residual = 2.10245e-05, Final residual = 7.42445e-17, No Iterations 6
diagonal:  Solving for rho, Initial residual = 0, Final residual = 0, No Iterations 0
time step continuity errors : sum local = 1.53138e-16, global = -3.41296e-17, cumulative = 2.29561e-13
ExecutionTime = 2.13 s  ClockTime = 7 s

Time = 0.00694

Courant Number mean: 0.152382 max: 0.293322
diagonal:  Solving for rho, Initial residual = 0, Final residual = 0, No Iterations 0
PIMPLE: iteration 1
smoothSolver:  Solving for Ux, Initial residual = 0.000522037, Final residual = 3.08801e-17, No Iterations 1
smoothSolver:  Solving for e, Initial residual = 0.000930859, Final residual = 8.38015e-16, No Iterations 7
smoothSolver:  Solving for p, Initial residual = 0.000440151, Final residual = 1.37115e-16, No Iterations 6
diagonal:  Solving for rho, Initial residual = 0, Final residual = 0, No Iterations 0
time step continuity errors : sum local = 2.11035e-16, global = -6.08151e-17, cumulative = 2.295e-13
PIMPLE: iteration 2
smoothSolver:  Solving for Ux, Initial residual = 1.31253e-05, Final residual = 3.11621e-17, No Iterations 1
smoothSolver:  Solving for e, Initial residual = 9.42774e-05, Final residual = 8.54768e-17, No Iterations 7
smoothSolver:  Solving for p, Initial residual = 2.19158e-05, Final residual = 7.5232e-17, No Iterations 6
diagonal:  Solving for rho, Initial residual = 0, Final residual = 0, No Iterations 0
time step continuity errors : sum local = 1.42998e-16, global = -1.44927e-17, cumulative = 2.29485e-13
ExecutionTime = 2.14 s  ClockTime = 7 s

Time = 0.00695

Courant Number mean: 0.152603 max: 0.293322
diagonal:  Solving for rho, Initial residual = 0, Final residual = 0, No Iterations 0
PIMPLE: iteration 1
smoothSolver:  Solving for Ux, Initial residual = 0.000521976, Final residual = 3.24526e-17, No Iterations 1
smoothSolver:  Solving for e, Initial residual = 0.000930723, Final residual = 8.36681e-16, No Iterations 7
smoothSolver:  Solving for p, Initial residual = 0.00044052, Final residual = 1.37001e-16, No Iterations 6
diagonal:  Solving for rho, Initial residual = 0, Final residual = 0, No Iterations 0
time step continuity errors : sum local = 2.10713e-16, global = -5.3816e-17, cumulative = 2.29432e-13
PIMPLE: iteration 2
smoothSolver:  Solving for Ux, Initial residual = 1.29908e-05, Final residual = 3.11061e-17, No Iterations 1
smoothSolver:  Solving for e, Initial residual = 8.7504e-05, Final residual = 8.7262e-17, No Iterations 7
smoothSolver:  Solving for p, Initial residual = 1.97519e-05, Final residual = 9.59204e-16, No Iterations 5
diagonal:  Solving for rho, Initial residual = 0, Final residual = 0, No Iterations 0
time step continuity errors : sum local = 1.16528e-15, global = 8.17405e-16, cumulative = 2.30249e-13
ExecutionTime = 2.14 s  ClockTime = 7 s

Time = 0.00696

Courant Number mean: 0.152822 max: 0.293321
diagonal:  Solving for rho, Initial residual = 0, Final residual = 0, No Iterations 0
PIMPLE: iteration 1
smoothSolver:  Solving for Ux, Initial residual = 0.000521804, Final residual = 3.16017e-17, No Iterations 1
smoothSolver:  Solving for e, Initial residual = 0.000930368, Final residual = 8.33241e-16, No Iterations 7
smoothSolver:  Solving for p, Initial residual = 0.000440876, Final residual = 1.30743e-16, No Iterations 6
diagonal:  Solving for rho, Initial residual = 0, Final residual = 0, No Iterations 0
time step continuity errors : sum local = 2.03615e-16, global = -5.58687e-17, cumulative = 2.30193e-13
PIMPLE: iteration 2
smoothSolver:  Solving for Ux, Initial residual = 1.2998e-05, Final residual = 3.19058e-17, No Iterations 1
smoothSolver:  Solving for e, Initial residual = 9.79473e-05, Final residual = 8.74182e-17, No Iterations 7
smoothSolver:  Solving for p, Initial residual = 2.32751e-05, Final residual = 7.26453e-17, No Iterations 6
diagonal:  Solving for rho, Initial residual = 0, Final residual = 0, No Iterations 0
time step continuity errors : sum local = 1.47648e-16, global = -1.57293e-17, cumulative = 2.30177e-13
ExecutionTime = 2.14 s  ClockTime = 7 s

Time = 0.00697

Courant Number mean: 0.153043 max: 0.293322
diagonal:  Solving for rho, Initial residual = 0, Final residual = 0, No Iterations 0
PIMPLE: iteration 1
smoothSolver:  Solving for Ux, Initial residual = 0.000521779, Final residual = 3.08911e-17, No Iterations 1
smoothSolver:  Solving for e, Initial residual = 0.000930268, Final residual = 8.31169e-16, No Iterations 7
smoothSolver:  Solving for p, Initial residual = 0.000441257, Final residual = 1.30811e-16, No Iterations 6
diagonal:  Solving for rho, Initial residual = 0, Final residual = 0, No Iterations 0
time step continuity errors : sum local = 2.01019e-16, global = -5.96032e-17, cumulative = 2.30118e-13
PIMPLE: iteration 2
smoothSolver:  Solving for Ux, Initial residual = 1.31505e-05, Final residual = 3.05867e-17, No Iterations 1
smoothSolver:  Solving for e, Initial residual = 8.98112e-05, Final residual = 8.44711e-17, No Iterations 7
smoothSolver:  Solving for p, Initial residual = 1.99075e-05, Final residual = 7.40612e-17, No Iterations 6
diagonal:  Solving for rho, Initial residual = 0, Final residual = 0, No Iterations 0
time step continuity errors : sum local = 1.51753e-16, global = -3.03704e-17, cumulative = 2.30088e-13
ExecutionTime = 2.14 s  ClockTime = 7 s

Time = 0.00698

Courant Number mean: 0.153262 max: 0.293322
diagonal:  Solving for rho, Initial residual = 0, Final residual = 0, No Iterations 0
PIMPLE: iteration 1
smoothSolver:  Solving for Ux, Initial residual = 0.000521617, Final residual = 2.99641e-17, No Iterations 1
smoothSolver:  Solving for e, Initial residual = 0.000929938, Final residual = 8.36056e-16, No Iterations 7
smoothSolver:  Solving for p, Initial residual = 0.000441617, Final residual = 1.3751e-16, No Iterations 6
diagonal:  Solving for rho, Initial residual = 0, Final residual = 0, No Iterations 0
time step continuity errors : sum local = 2.07375e-16, global = -6.63055e-17, cumulative = 2.30021e-13
PIMPLE: iteration 2
smoothSolver:  Solving for Ux, Initial residual = 1.29578e-05, Final residual = 3.00104e-17, No Iterations 1
smoothSolver:  Solving for e, Initial residual = 9.26436e-05, Final residual = 8.09022e-17, No Iterations 7
smoothSolver:  Solving for p, Initial residual = 2.1636e-05, Final residual = 9.70923e-16, No Iterations 5
diagonal:  Solving for rho, Initial residual = 0, Final residual = 0, No Iterations 0
time step continuity errors : sum local = 1.16869e-15, global = 8.23093e-16, cumulative = 2.30844e-13
ExecutionTime = 2.15 s  ClockTime = 7 s

Time = 0.00699

Courant Number mean: 0.153483 max: 0.293321
diagonal:  Solving for rho, Initial residual = 0, Final residual = 0, No Iterations 0
PIMPLE: iteration 1
smoothSolver:  Solving for Ux, Initial residual = 0.000521571, Final residual = 3.05356e-17, No Iterations 1
smoothSolver:  Solving for e, Initial residual = 0.00092982, Final residual = 8.35954e-16, No Iterations 7
smoothSolver:  Solving for p, Initial residual = 0.000441999, Final residual = 1.34582e-16, No Iterations 6
diagonal:  Solving for rho, Initial residual = 0, Final residual = 0, No Iterations 0
time step continuity errors : sum local = 2.13632e-16, global = -5.40633e-17, cumulative = 2.3079e-13
PIMPLE: iteration 2
smoothSolver:  Solving for Ux, Initial residual = 1.31146e-05, Final residual = 3.08998e-17, No Iterations 1
smoothSolver:  Solving for e, Initial residual = 9.56569e-05, Final residual = 8.7113e-17, No Iterations 7
smoothSolver:  Solving for p, Initial residual = 2.17723e-05, Final residual = 9.57785e-16, No Iterations 5
diagonal:  Solving for rho, Initial residual = 0, Final residual = 0, No Iterations 0
time step continuity errors : sum local = 1.15744e-15, global = 7.52929e-16, cumulative = 2.31543e-13
ExecutionTime = 2.15 s  ClockTime = 7 s

Time = 0.007

Courant Number mean: 0.153703 max: 0.293321
diagonal:  Solving for rho, Initial residual = 0, Final residual = 0, No Iterations 0
PIMPLE: iteration 1
smoothSolver:  Solving for Ux, Initial residual = 0.000521484, Final residual = 3.0392e-17, No Iterations 1
smoothSolver:  Solving for e, Initial residual = 0.000929596, Final residual = 8.33607e-16, No Iterations 7
smoothSolver:  Solving for p, Initial residual = 0.000442369, Final residual = 1.34263e-16, No Iterations 6
diagonal:  Solving for rho, Initial residual = 0, Final residual = 0, No Iterations 0
time step continuity errors : sum local = 2.1059e-16, global = -7.00647e-17, cumulative = 2.31473e-13
PIMPLE: iteration 2
smoothSolver:  Solving for Ux, Initial residual = 1.27564e-05, Final residual = 3.23989e-17, No Iterations 1
smoothSolver:  Solving for e, Initial residual = 9.39185e-05, Final residual = 9.09728e-17, No Iterations 7
smoothSolver:  Solving for p, Initial residual = 2.21275e-05, Final residual = 7.47381e-17, No Iterations 6
diagonal:  Solving for rho, Initial residual = 0, Final residual = 0, No Iterations 0
time step continuity errors : sum local = 1.5205e-16, global = -3.33382e-17, cumulative = 2.3144e-13
ExecutionTime = 2.16 s  ClockTime = 7 s

    functionObjects::mag mag(U) writing field: mag(U)
End

