/*---------------------------------------------------------------------------*\
| =========                 |                                                 |
| \\      /  F ield         | OpenFOAM: The Open Source CFD Toolbox           |
|  \\    /   O peration     | Version:  2406                                  |
|   \\  /    A nd           | Website:  www.openfoam.com                      |
|    \\/     M anipulation  |                                                 |
\*---------------------------------------------------------------------------*/
Build  : _9bfe8264-20241212 OPENFOAM=2406 patch=241212 version=2406
Arch   : "LSB;label=32;scalar=64"
Exec   : sonicFoam -parallel
Date   : Aug 24 2025
Time   : 08:37:25
Host   : Indigo
PID    : 8842
I/O    : uncollated
Case   : /mnt/e/Repository/Projects/bulletSim/sonicFoamRAS/prism
nProcs : 8
Hosts  :
(
    (Indigo 8)
)
Pstream initialized with:
    floatTransfer      : false
    maxCommsSize       : 0
    nProcsSimpleSum    : 0
    nonBlockingExchange: 0 (tuning: 0)
    exchange algorithm : 0
    commsType          : nonBlocking
    polling iterations : 0
trapFpe: Floating point exception trapping enabled (FOAM_SIGFPE).
fileModificationChecking : Monitoring run-time modified files using timeStampMaster (fileModificationSkew 5, maxFileModificationPolls 20)
allowSystemOperations : Allowing user-supplied system call operations

// * * * * * * * * * * * * * * * * * * * * * * * * * * * * * * * * * * * * * //
Create time

Create mesh for time = 0


PIMPLE: no residual control data found. Calculations will employ 2 corrector loops

Reading thermophysical properties

Selecting thermodynamics package 
{
    type            hePsiThermo;
    mixture         pureMixture;
    transport       const;
    thermo          hConst;
    equationOfState perfectGas;
    specie          specie;
    energy          sensibleInternalEnergy;
}

Reading field U

Reading/calculating face flux field phi

Creating turbulence model

Selecting turbulence model type RAS
Selecting RAS turbulence model kEpsilon
RAS
{
    RASModel        kEpsilon;
    turbulence      on;
    printCoeffs     on;
    Cmu             0.09;
    C1              1.44;
    C2              1.92;
    C3              0;
    sigmak          1;
    sigmaEps        1.3;
}

Creating field kinetic energy K

No MRF models present

No finite volume options present

Starting time loop

Time = 5e-07

Courant Number mean: 0.0347357 max: 0.186667
diagonal:  Solving for rho, Initial residual = 0, Final residual = 0, No Iterations 0
PIMPLE: iteration 1
smoothSolver:  Solving for Ux, Initial residual = 1, Final residual = 1.22256e-06, No Iterations 4
smoothSolver:  Solving for Uy, Initial residual = 1, Final residual = 9.86988e-07, No Iterations 4
smoothSolver:  Solving for e, Initial residual = 1, Final residual = 4.02316e-06, No Iterations 6
smoothSolver:  Solving for p, Initial residual = 1, Final residual = 2.40229e-09, No Iterations 5
diagonal:  Solving for rho, Initial residual = 0, Final residual = 0, No Iterations 0
time step continuity errors : sum local = 0.000219338, global = 0.000118645, cumulative = 0.000118645
PIMPLE: iteration 2
smoothSolver:  Solving for Ux, Initial residual = 0.102002, Final residual = 2.18138e-06, No Iterations 3
smoothSolver:  Solving for Uy, Initial residual = 0.0538597, Final residual = 1.99543e-06, No Iterations 3
smoothSolver:  Solving for e, Initial residual = 0.436223, Final residual = 9.23987e-06, No Iterations 5
smoothSolver:  Solving for p, Initial residual = 0.236269, Final residual = 4.86864e-09, No Iterations 4
diagonal:  Solving for rho, Initial residual = 0, Final residual = 0, No Iterations 0
time step continuity errors : sum local = 0.000219338, global = 0.000118645, cumulative = 0.000237291
smoothSolver:  Solving for epsilon, Initial residual = 0.00793781, Final residual = 5.0048e-09, No Iterations 4
smoothSolver:  Solving for k, Initial residual = 1, Final residual = 3.69532e-09, No Iterations 9
ExecutionTime = 0.06 s  ClockTime = 0 s

Time = 1e-06

Courant Number mean: 0.0348929 max: 0.186723
diagonal:  Solving for rho, Initial residual = 0, Final residual = 0, No Iterations 0
PIMPLE: iteration 1
smoothSolver:  Solving for Ux, Initial residual = 0.10981, Final residual = 1.66089e-06, No Iterations 3
smoothSolver:  Solving for Uy, Initial residual = 0.19634, Final residual = 2.4451e-06, No Iterations 4
smoothSolver:  Solving for e, Initial residual = 0.28695, Final residual = 1.49896e-06, No Iterations 3
smoothSolver:  Solving for p, Initial residual = 0.2709, Final residual = 6.86554e-10, No Iterations 5
diagonal:  Solving for rho, Initial residual = 0, Final residual = 0, No Iterations 0
time step continuity errors : sum local = 7.94589e-13, global = 3.24038e-13, cumulative = 0.000237291
PIMPLE: iteration 2
smoothSolver:  Solving for Ux, Initial residual = 0.00733156, Final residual = 2.58733e-06, No Iterations 2
smoothSolver:  Solving for Uy, Initial residual = 0.0228044, Final residual = 5.57048e-06, No Iterations 3
smoothSolver:  Solving for e, Initial residual = 0.0484335, Final residual = 7.73735e-06, No Iterations 2
smoothSolver:  Solving for p, Initial residual = 0.0143292, Final residual = 1.75656e-09, No Iterations 4
diagonal:  Solving for rho, Initial residual = 0, Final residual = 0, No Iterations 0
time step continuity errors : sum local = 2.80438e-12, global = 1.54388e-12, cumulative = 0.000237291
smoothSolver:  Solving for epsilon, Initial residual = 0.00485795, Final residual = 2.96007e-09, No Iterations 4
smoothSolver:  Solving for k, Initial residual = 0.488357, Final residual = 9.31022e-09, No Iterations 8
ExecutionTime = 0.07 s  ClockTime = 0 s

Time = 1.5e-06

Courant Number mean: 0.0348804 max: 0.184959
diagonal:  Solving for rho, Initial residual = 0, Final residual = 0, No Iterations 0
PIMPLE: iteration 1
smoothSolver:  Solving for Ux, Initial residual = 0.0898746, Final residual = 6.92005e-07, No Iterations 3
smoothSolver:  Solving for Uy, Initial residual = 0.211507, Final residual = 8.97827e-06, No Iterations 3
smoothSolver:  Solving for e, Initial residual = 0.171243, Final residual = 9.70926e-06, No Iterations 2
smoothSolver:  Solving for p, Initial residual = 0.168214, Final residual = 6.07701e-10, No Iterations 5
diagonal:  Solving for rho, Initial residual = 0, Final residual = 0, No Iterations 0
time step continuity errors : sum local = 1.1291e-12, global = 7.29239e-13, cumulative = 0.000237291
PIMPLE: iteration 2
smoothSolver:  Solving for Ux, Initial residual = 0.00261616, Final residual = 4.1754e-07, No Iterations 2
smoothSolver:  Solving for Uy, Initial residual = 0.00952417, Final residual = 1.35987e-06, No Iterations 3
smoothSolver:  Solving for e, Initial residual = 0.0279622, Final residual = 2.94764e-06, No Iterations 2
smoothSolver:  Solving for p, Initial residual = 0.00826196, Final residual = 1.11451e-09, No Iterations 4
diagonal:  Solving for rho, Initial residual = 0, Final residual = 0, No Iterations 0
time step continuity errors : sum local = 2.50782e-12, global = 1.93102e-12, cumulative = 0.000237291
smoothSolver:  Solving for epsilon, Initial residual = 0.004067, Final residual = 2.61933e-09, No Iterations 4
smoothSolver:  Solving for k, Initial residual = 0.322301, Final residual = 5.92955e-09, No Iterations 8
ExecutionTime = 0.08 s  ClockTime = 0 s

Time = 2e-06

Courant Number mean: 0.0348649 max: 0.182997
diagonal:  Solving for rho, Initial residual = 0, Final residual = 0, No Iterations 0
PIMPLE: iteration 1
smoothSolver:  Solving for Ux, Initial residual = 0.0676014, Final residual = 3.33678e-06, No Iterations 2
smoothSolver:  Solving for Uy, Initial residual = 0.185314, Final residual = 2.95719e-06, No Iterations 3
smoothSolver:  Solving for e, Initial residual = 0.121887, Final residual = 8.05988e-06, No Iterations 2
smoothSolver:  Solving for p, Initial residual = 0.123682, Final residual = 9.83454e-09, No Iterations 4
diagonal:  Solving for rho, Initial residual = 0, Final residual = 0, No Iterations 0
time step continuity errors : sum local = 2.47752e-11, global = 2.40106e-11, cumulative = 0.000237291
PIMPLE: iteration 2
smoothSolver:  Solving for Ux, Initial residual = 0.00136449, Final residual = 2.44375e-07, No Iterations 2
smoothSolver:  Solving for Uy, Initial residual = 0.00464144, Final residual = 5.52438e-06, No Iterations 2
smoothSolver:  Solving for e, Initial residual = 0.0155134, Final residual = 1.86157e-06, No Iterations 2
smoothSolver:  Solving for p, Initial residual = 0.00467221, Final residual = 6.53092e-10, No Iterations 4
diagonal:  Solving for rho, Initial residual = 0, Final residual = 0, No Iterations 0
time step continuity errors : sum local = 1.87525e-12, global = 1.6195e-12, cumulative = 0.000237291
smoothSolver:  Solving for epsilon, Initial residual = 0.00354702, Final residual = 2.37462e-09, No Iterations 4
smoothSolver:  Solving for k, Initial residual = 0.239402, Final residual = 4.24961e-09, No Iterations 8
ExecutionTime = 0.09 s  ClockTime = 0 s

Time = 2.5e-06

Courant Number mean: 0.0348524 max: 0.181661
diagonal:  Solving for rho, Initial residual = 0, Final residual = 0, No Iterations 0
PIMPLE: iteration 1
smoothSolver:  Solving for Ux, Initial residual = 0.0535213, Final residual = 2.16998e-06, No Iterations 2
smoothSolver:  Solving for Uy, Initial residual = 0.157754, Final residual = 1.49024e-06, No Iterations 3
smoothSolver:  Solving for e, Initial residual = 0.0949246, Final residual = 6.58658e-07, No Iterations 3
smoothSolver:  Solving for p, Initial residual = 0.0987085, Final residual = 9.07056e-09, No Iterations 4
diagonal:  Solving for rho, Initial residual = 0, Final residual = 0, No Iterations 0
time step continuity errors : sum local = 2.85512e-11, global = 2.78875e-11, cumulative = 0.000237291
PIMPLE: iteration 2
smoothSolver:  Solving for Ux, Initial residual = 0.000847425, Final residual = 7.5211e-06, No Iterations 1
smoothSolver:  Solving for Uy, Initial residual = 0.0033137, Final residual = 2.69057e-06, No Iterations 2
smoothSolver:  Solving for e, Initial residual = 0.00882763, Final residual = 1.39289e-06, No Iterations 2
smoothSolver:  Solving for p, Initial residual = 0.00272965, Final residual = 8.93119e-09, No Iterations 3
diagonal:  Solving for rho, Initial residual = 0, Final residual = 0, No Iterations 0
time step continuity errors : sum local = 3.09414e-11, global = -2.7203e-11, cumulative = 0.000237291
smoothSolver:  Solving for epsilon, Initial residual = 0.00321177, Final residual = 2.20203e-09, No Iterations 4
smoothSolver:  Solving for k, Initial residual = 0.190049, Final residual = 3.29963e-09, No Iterations 8
ExecutionTime = 0.1 s  ClockTime = 0 s

Time = 3e-06

Courant Number mean: 0.0348446 max: 0.180878
diagonal:  Solving for rho, Initial residual = 0, Final residual = 0, No Iterations 0
PIMPLE: iteration 1
smoothSolver:  Solving for Ux, Initial residual = 0.0440958, Final residual = 1.56275e-06, No Iterations 2
smoothSolver:  Solving for Uy, Initial residual = 0.134599, Final residual = 8.88557e-07, No Iterations 3
smoothSolver:  Solving for e, Initial residual = 0.0778884, Final residual = 7.17674e-07, No Iterations 3
smoothSolver:  Solving for p, Initial residual = 0.0826269, Final residual = 8.42273e-09, No Iterations 4
diagonal:  Solving for rho, Initial residual = 0, Final residual = 0, No Iterations 0
time step continuity errors : sum local = 3.15642e-11, global = 3.12118e-11, cumulative = 0.000237291
PIMPLE: iteration 2
smoothSolver:  Solving for Ux, Initial residual = 0.00047108, Final residual = 4.95478e-06, No Iterations 1
smoothSolver:  Solving for Uy, Initial residual = 0.00207337, Final residual = 1.61732e-06, No Iterations 2
smoothSolver:  Solving for e, Initial residual = 0.00650798, Final residual = 6.84237e-07, No Iterations 2
smoothSolver:  Solving for p, Initial residual = 0.00215708, Final residual = 4.93335e-09, No Iterations 3
diagonal:  Solving for rho, Initial residual = 0, Final residual = 0, No Iterations 0
time step continuity errors : sum local = 1.98943e-11, global = -2.99414e-12, cumulative = 0.000237291
smoothSolver:  Solving for epsilon, Initial residual = 0.00296562, Final residual = 2.10552e-09, No Iterations 4
smoothSolver:  Solving for k, Initial residual = 0.157448, Final residual = 2.7517e-09, No Iterations 8
ExecutionTime = 0.11 s  ClockTime = 0 s

Time = 3.5e-06

Courant Number mean: 0.0348397 max: 0.180346
diagonal:  Solving for rho, Initial residual = 0, Final residual = 0, No Iterations 0
PIMPLE: iteration 1
smoothSolver:  Solving for Ux, Initial residual = 0.0374457, Final residual = 1.34953e-06, No Iterations 2
smoothSolver:  Solving for Uy, Initial residual = 0.117209, Final residual = 6.69698e-07, No Iterations 3
smoothSolver:  Solving for e, Initial residual = 0.0660225, Final residual = 6.67316e-07, No Iterations 3
smoothSolver:  Solving for p, Initial residual = 0.0713228, Final residual = 7.69848e-09, No Iterations 4
diagonal:  Solving for rho, Initial residual = 0, Final residual = 0, No Iterations 0
time step continuity errors : sum local = 3.32587e-11, global = 3.29236e-11, cumulative = 0.000237291
PIMPLE: iteration 2
smoothSolver:  Solving for Ux, Initial residual = 0.00042042, Final residual = 3.80841e-06, No Iterations 1
smoothSolver:  Solving for Uy, Initial residual = 0.0020693, Final residual = 1.08575e-06, No Iterations 2
smoothSolver:  Solving for e, Initial residual = 0.00566035, Final residual = 5.69699e-07, No Iterations 2
smoothSolver:  Solving for p, Initial residual = 0.00192716, Final residual = 4.11818e-09, No Iterations 3
diagonal:  Solving for rho, Initial residual = 0, Final residual = 0, No Iterations 0
time step continuity errors : sum local = 1.88436e-11, global = 2.63645e-12, cumulative = 0.000237291
smoothSolver:  Solving for epsilon, Initial residual = 0.00276349, Final residual = 1.99787e-09, No Iterations 4
smoothSolver:  Solving for k, Initial residual = 0.134408, Final residual = 2.32653e-09, No Iterations 8
ExecutionTime = 0.13 s  ClockTime = 0 s

Time = 4e-06

Courant Number mean: 0.034836 max: 0.179851
diagonal:  Solving for rho, Initial residual = 0, Final residual = 0, No Iterations 0
PIMPLE: iteration 1
smoothSolver:  Solving for Ux, Initial residual = 0.0325064, Final residual = 1.26853e-06, No Iterations 2
smoothSolver:  Solving for Uy, Initial residual = 0.103675, Final residual = 6.112e-07, No Iterations 3
smoothSolver:  Solving for e, Initial residual = 0.0572489, Final residual = 8.96735e-06, No Iterations 2
smoothSolver:  Solving for p, Initial residual = 0.062904, Final residual = 7.04348e-09, No Iterations 4
diagonal:  Solving for rho, Initial residual = 0, Final residual = 0, No Iterations 0
time step continuity errors : sum local = 3.42764e-11, global = 3.38461e-11, cumulative = 0.000237291
PIMPLE: iteration 2
smoothSolver:  Solving for Ux, Initial residual = 0.000323188, Final residual = 3.43267e-06, No Iterations 1
smoothSolver:  Solving for Uy, Initial residual = 0.00161719, Final residual = 1.23359e-06, No Iterations 2
smoothSolver:  Solving for e, Initial residual = 0.00596597, Final residual = 6.39926e-07, No Iterations 2
smoothSolver:  Solving for p, Initial residual = 0.00208734, Final residual = 4.55805e-09, No Iterations 3
diagonal:  Solving for rho, Initial residual = 0, Final residual = 0, No Iterations 0
time step continuity errors : sum local = 2.32228e-11, global = 4.10621e-12, cumulative = 0.000237291
smoothSolver:  Solving for epsilon, Initial residual = 0.00259671, Final residual = 1.89152e-09, No Iterations 4
smoothSolver:  Solving for k, Initial residual = 0.116303, Final residual = 9.98745e-09, No Iterations 7
ExecutionTime = 0.14 s  ClockTime = 0 s

Time = 4.5e-06

Courant Number mean: 0.0348331 max: 0.179286
diagonal:  Solving for rho, Initial residual = 0, Final residual = 0, No Iterations 0
PIMPLE: iteration 1
smoothSolver:  Solving for Ux, Initial residual = 0.0286666, Final residual = 1.79945e-06, No Iterations 2
smoothSolver:  Solving for Uy, Initial residual = 0.0928933, Final residual = 7.83974e-07, No Iterations 3
smoothSolver:  Solving for e, Initial residual = 0.0505265, Final residual = 7.8843e-06, No Iterations 2
smoothSolver:  Solving for p, Initial residual = 0.0562931, Final residual = 6.3956e-09, No Iterations 4
diagonal:  Solving for rho, Initial residual = 0, Final residual = 0, No Iterations 0
time step continuity errors : sum local = 3.44643e-11, global = 3.39329e-11, cumulative = 0.000237291
PIMPLE: iteration 2
smoothSolver:  Solving for Ux, Initial residual = 0.000243649, Final residual = 2.38948e-06, No Iterations 1
smoothSolver:  Solving for Uy, Initial residual = 0.00119904, Final residual = 8.83487e-07, No Iterations 2
smoothSolver:  Solving for e, Initial residual = 0.00486034, Final residual = 5.49465e-07, No Iterations 2
smoothSolver:  Solving for p, Initial residual = 0.00170383, Final residual = 3.31426e-09, No Iterations 3
diagonal:  Solving for rho, Initial residual = 0, Final residual = 0, No Iterations 0
time step continuity errors : sum local = 1.85432e-11, global = 6.84396e-12, cumulative = 0.000237291
smoothSolver:  Solving for epsilon, Initial residual = 0.0024573, Final residual = 1.82599e-09, No Iterations 4
smoothSolver:  Solving for k, Initial residual = 0.102575, Final residual = 8.84126e-09, No Iterations 7
ExecutionTime = 0.14 s  ClockTime = 0 s

Time = 5e-06

Courant Number mean: 0.0348309 max: 0.17861
diagonal:  Solving for rho, Initial residual = 0, Final residual = 0, No Iterations 0
PIMPLE: iteration 1
smoothSolver:  Solving for Ux, Initial residual = 0.0255993, Final residual = 1.58314e-06, No Iterations 2
smoothSolver:  Solving for Uy, Initial residual = 0.0848015, Final residual = 7.37504e-07, No Iterations 3
smoothSolver:  Solving for e, Initial residual = 0.0455462, Final residual = 6.9705e-06, No Iterations 2
smoothSolver:  Solving for p, Initial residual = 0.0509912, Final residual = 5.67214e-09, No Iterations 4
diagonal:  Solving for rho, Initial residual = 0, Final residual = 0, No Iterations 0
time step continuity errors : sum local = 3.34098e-11, global = 3.27293e-11, cumulative = 0.000237291
PIMPLE: iteration 2
smoothSolver:  Solving for Ux, Initial residual = 0.000375724, Final residual = 2.50988e-06, No Iterations 1
smoothSolver:  Solving for Uy, Initial residual = 0.00115795, Final residual = 8.65562e-07, No Iterations 2
smoothSolver:  Solving for e, Initial residual = 0.00412684, Final residual = 6.24532e-07, No Iterations 2
smoothSolver:  Solving for p, Initial residual = 0.00144145, Final residual = 4.93926e-09, No Iterations 3
diagonal:  Solving for rho, Initial residual = 0, Final residual = 0, No Iterations 0
time step continuity errors : sum local = 3.06996e-11, global = 1.91196e-11, cumulative = 0.000237291
smoothSolver:  Solving for epsilon, Initial residual = 0.00234405, Final residual = 1.73581e-09, No Iterations 4
smoothSolver:  Solving for k, Initial residual = 0.0926187, Final residual = 7.73604e-09, No Iterations 7
ExecutionTime = 0.15 s  ClockTime = 0 s

Time = 5.5e-06

Courant Number mean: 0.0348294 max: 0.17779
diagonal:  Solving for rho, Initial residual = 0, Final residual = 0, No Iterations 0
PIMPLE: iteration 1
smoothSolver:  Solving for Ux, Initial residual = 0.0231051, Final residual = 1.41463e-06, No Iterations 2
smoothSolver:  Solving for Uy, Initial residual = 0.0778991, Final residual = 6.92743e-07, No Iterations 3
smoothSolver:  Solving for e, Initial residual = 0.0414736, Final residual = 6.23875e-06, No Iterations 2
smoothSolver:  Solving for p, Initial residual = 0.0452977, Final residual = 4.73633e-09, No Iterations 4
diagonal:  Solving for rho, Initial residual = 0, Final residual = 0, No Iterations 0
time step continuity errors : sum local = 3.10738e-11, global = 3.03187e-11, cumulative = 0.000237291
PIMPLE: iteration 2
smoothSolver:  Solving for Ux, Initial residual = 0.000394229, Final residual = 2.35758e-06, No Iterations 1
smoothSolver:  Solving for Uy, Initial residual = 0.00102154, Final residual = 7.37871e-07, No Iterations 2
smoothSolver:  Solving for e, Initial residual = 0.00414521, Final residual = 5.78314e-07, No Iterations 2
smoothSolver:  Solving for p, Initial residual = 0.00185872, Final residual = 4.03533e-09, No Iterations 3
diagonal:  Solving for rho, Initial residual = 0, Final residual = 0, No Iterations 0
time step continuity errors : sum local = 2.80932e-11, global = 1.03257e-11, cumulative = 0.000237291
smoothSolver:  Solving for epsilon, Initial residual = 0.00227025, Final residual = 1.70992e-09, No Iterations 4
smoothSolver:  Solving for k, Initial residual = 0.0854489, Final residual = 7.27505e-09, No Iterations 7
ExecutionTime = 0.17 s  ClockTime = 0 s

Time = 6e-06

Courant Number mean: 0.0348261 max: 0.176844
diagonal:  Solving for rho, Initial residual = 0, Final residual = 0, No Iterations 0
PIMPLE: iteration 1
smoothSolver:  Solving for Ux, Initial residual = 0.0210297, Final residual = 1.28558e-06, No Iterations 2
smoothSolver:  Solving for Uy, Initial residual = 0.0719304, Final residual = 6.4984e-07, No Iterations 3
smoothSolver:  Solving for e, Initial residual = 0.0381106, Final residual = 5.67395e-06, No Iterations 2
smoothSolver:  Solving for p, Initial residual = 0.0401897, Final residual = 3.93697e-09, No Iterations 4
diagonal:  Solving for rho, Initial residual = 0, Final residual = 0, No Iterations 0
time step continuity errors : sum local = 2.87499e-11, global = 2.79629e-11, cumulative = 0.000237291
PIMPLE: iteration 2
smoothSolver:  Solving for Ux, Initial residual = 0.000323963, Final residual = 2.02523e-06, No Iterations 1
smoothSolver:  Solving for Uy, Initial residual = 0.00106525, Final residual = 6.37734e-07, No Iterations 2
smoothSolver:  Solving for e, Initial residual = 0.0039828, Final residual = 5.44733e-07, No Iterations 2
smoothSolver:  Solving for p, Initial residual = 0.00193831, Final residual = 3.42872e-09, No Iterations 3
diagonal:  Solving for rho, Initial residual = 0, Final residual = 0, No Iterations 0
time step continuity errors : sum local = 2.64598e-11, global = 4.69515e-14, cumulative = 0.000237291
smoothSolver:  Solving for epsilon, Initial residual = 0.0022046, Final residual = 1.62959e-09, No Iterations 4
smoothSolver:  Solving for k, Initial residual = 0.0798237, Final residual = 6.57172e-09, No Iterations 7
ExecutionTime = 0.18 s  ClockTime = 0 s

Time = 6.5e-06

Courant Number mean: 0.0348202 max: 0.175788
diagonal:  Solving for rho, Initial residual = 0, Final residual = 0, No Iterations 0
PIMPLE: iteration 1
smoothSolver:  Solving for Ux, Initial residual = 0.0192734, Final residual = 1.18244e-06, No Iterations 2
smoothSolver:  Solving for Uy, Initial residual = 0.0668383, Final residual = 6.14178e-07, No Iterations 3
smoothSolver:  Solving for e, Initial residual = 0.0354368, Final residual = 5.28871e-06, No Iterations 2
smoothSolver:  Solving for p, Initial residual = 0.0359653, Final residual = 3.35538e-09, No Iterations 4
diagonal:  Solving for rho, Initial residual = 0, Final residual = 0, No Iterations 0
time step continuity errors : sum local = 2.70144e-11, global = 2.6224e-11, cumulative = 0.000237291
PIMPLE: iteration 2
smoothSolver:  Solving for Ux, Initial residual = 0.000285532, Final residual = 1.76114e-06, No Iterations 1
smoothSolver:  Solving for Uy, Initial residual = 0.00104536, Final residual = 5.65843e-07, No Iterations 2
smoothSolver:  Solving for e, Initial residual = 0.00333752, Final residual = 4.80598e-07, No Iterations 2
smoothSolver:  Solving for p, Initial residual = 0.00136383, Final residual = 2.94302e-09, No Iterations 3
diagonal:  Solving for rho, Initial residual = 0, Final residual = 0, No Iterations 0
time step continuity errors : sum local = 2.49532e-11, global = -6.67003e-12, cumulative = 0.000237291
smoothSolver:  Solving for epsilon, Initial residual = 0.00214758, Final residual = 1.54805e-09, No Iterations 4
smoothSolver:  Solving for k, Initial residual = 0.0749957, Final residual = 5.8522e-09, No Iterations 7
ExecutionTime = 0.18 s  ClockTime = 0 s

Time = 7e-06

Courant Number mean: 0.0348134 max: 0.174635
diagonal:  Solving for rho, Initial residual = 0, Final residual = 0, No Iterations 0
PIMPLE: iteration 1
smoothSolver:  Solving for Ux, Initial residual = 0.0177816, Final residual = 1.11845e-06, No Iterations 2
smoothSolver:  Solving for Uy, Initial residual = 0.0623803, Final residual = 5.7849e-07, No Iterations 3
smoothSolver:  Solving for e, Initial residual = 0.0333392, Final residual = 5.29689e-06, No Iterations 2
smoothSolver:  Solving for p, Initial residual = 0.0325365, Final residual = 3.12404e-09, No Iterations 4
diagonal:  Solving for rho, Initial residual = 0, Final residual = 0, No Iterations 0
time step continuity errors : sum local = 2.75139e-11, global = 2.50272e-11, cumulative = 0.000237291
PIMPLE: iteration 2
smoothSolver:  Solving for Ux, Initial residual = 0.000258892, Final residual = 1.5794e-06, No Iterations 1
smoothSolver:  Solving for Uy, Initial residual = 0.000859972, Final residual = 4.85391e-07, No Iterations 2
smoothSolver:  Solving for e, Initial residual = 0.00275818, Final residual = 4.4101e-07, No Iterations 2
smoothSolver:  Solving for p, Initial residual = 0.000936823, Final residual = 2.67742e-09, No Iterations 3
diagonal:  Solving for rho, Initial residual = 0, Final residual = 0, No Iterations 0
time step continuity errors : sum local = 2.4762e-11, global = -1.10161e-11, cumulative = 0.000237291
smoothSolver:  Solving for epsilon, Initial residual = 0.0021075, Final residual = 1.54864e-09, No Iterations 4
smoothSolver:  Solving for k, Initial residual = 0.0705786, Final residual = 5.60403e-09, No Iterations 7
ExecutionTime = 0.19 s  ClockTime = 0 s

Time = 7.5e-06

Courant Number mean: 0.0348068 max: 0.173389
diagonal:  Solving for rho, Initial residual = 0, Final residual = 0, No Iterations 0
PIMPLE: iteration 1
smoothSolver:  Solving for Ux, Initial residual = 0.0165083, Final residual = 1.08561e-06, No Iterations 2
smoothSolver:  Solving for Uy, Initial residual = 0.058258, Final residual = 5.42764e-07, No Iterations 3
smoothSolver:  Solving for e, Initial residual = 0.0316793, Final residual = 5.36641e-06, No Iterations 2
smoothSolver:  Solving for p, Initial residual = 0.029735, Final residual = 3.10543e-09, No Iterations 4
diagonal:  Solving for rho, Initial residual = 0, Final residual = 0, No Iterations 0
time step continuity errors : sum local = 2.97224e-11, global = 2.45063e-11, cumulative = 0.000237291
PIMPLE: iteration 2
smoothSolver:  Solving for Ux, Initial residual = 0.00022076, Final residual = 1.40459e-06, No Iterations 1
smoothSolver:  Solving for Uy, Initial residual = 0.00076263, Final residual = 4.22658e-07, No Iterations 2
smoothSolver:  Solving for e, Initial residual = 0.00221382, Final residual = 3.50165e-07, No Iterations 2
smoothSolver:  Solving for p, Initial residual = 0.00065013, Final residual = 2.10506e-09, No Iterations 3
diagonal:  Solving for rho, Initial residual = 0, Final residual = 0, No Iterations 0
time step continuity errors : sum local = 2.1106e-11, global = -1.04094e-11, cumulative = 0.000237291
smoothSolver:  Solving for epsilon, Initial residual = 0.00208782, Final residual = 1.44482e-09, No Iterations 4
smoothSolver:  Solving for k, Initial residual = 0.0646662, Final residual = 4.70481e-09, No Iterations 7
ExecutionTime = 0.21 s  ClockTime = 0 s

Time = 8e-06

Courant Number mean: 0.0348012 max: 0.172053
diagonal:  Solving for rho, Initial residual = 0, Final residual = 0, No Iterations 0
PIMPLE: iteration 1
smoothSolver:  Solving for Ux, Initial residual = 0.0154195, Final residual = 1.04873e-06, No Iterations 2
smoothSolver:  Solving for Uy, Initial residual = 0.0545074, Final residual = 9.56838e-06, No Iterations 2
smoothSolver:  Solving for e, Initial residual = 0.0302786, Final residual = 5.39208e-06, No Iterations 2
smoothSolver:  Solving for p, Initial residual = 0.0274123, Final residual = 3.05619e-09, No Iterations 4
diagonal:  Solving for rho, Initial residual = 0, Final residual = 0, No Iterations 0
time step continuity errors : sum local = 3.16184e-11, global = 2.441e-11, cumulative = 0.000237291
PIMPLE: iteration 2
smoothSolver:  Solving for Ux, Initial residual = 0.000186919, Final residual = 1.30788e-06, No Iterations 1
smoothSolver:  Solving for Uy, Initial residual = 0.000653502, Final residual = 8.96009e-06, No Iterations 1
smoothSolver:  Solving for e, Initial residual = 0.00201666, Final residual = 9.48232e-06, No Iterations 1
smoothSolver:  Solving for p, Initial residual = 0.000597839, Final residual = 1.79125e-09, No Iterations 3
diagonal:  Solving for rho, Initial residual = 0, Final residual = 0, No Iterations 0
time step continuity errors : sum local = 1.93735e-11, global = -8.75556e-12, cumulative = 0.000237291
smoothSolver:  Solving for epsilon, Initial residual = 0.00208695, Final residual = 1.45858e-09, No Iterations 4
smoothSolver:  Solving for k, Initial residual = 0.0592858, Final residual = 4.34834e-09, No Iterations 7
ExecutionTime = 0.22 s  ClockTime = 0 s

Time = 8.5e-06

Courant Number mean: 0.0347968 max: 0.170633
diagonal:  Solving for rho, Initial residual = 0, Final residual = 0, No Iterations 0
PIMPLE: iteration 1
smoothSolver:  Solving for Ux, Initial residual = 0.0144793, Final residual = 1.00605e-06, No Iterations 2
smoothSolver:  Solving for Uy, Initial residual = 0.0510092, Final residual = 8.65694e-06, No Iterations 2
smoothSolver:  Solving for e, Initial residual = 0.0290044, Final residual = 5.38378e-06, No Iterations 2
smoothSolver:  Solving for p, Initial residual = 0.0253875, Final residual = 2.96217e-09, No Iterations 4
diagonal:  Solving for rho, Initial residual = 0, Final residual = 0, No Iterations 0
time step continuity errors : sum local = 3.2974e-11, global = 2.45767e-11, cumulative = 0.000237291
PIMPLE: iteration 2
smoothSolver:  Solving for Ux, Initial residual = 0.000174605, Final residual = 1.23647e-06, No Iterations 1
smoothSolver:  Solving for Uy, Initial residual = 0.000628133, Final residual = 7.67605e-06, No Iterations 1
smoothSolver:  Solving for e, Initial residual = 0.00186527, Final residual = 9.18367e-06, No Iterations 1
smoothSolver:  Solving for p, Initial residual = 0.000545563, Final residual = 1.64613e-09, No Iterations 3
diagonal:  Solving for rho, Initial residual = 0, Final residual = 0, No Iterations 0
time step continuity errors : sum local = 1.91184e-11, global = -6.98597e-12, cumulative = 0.000237291
smoothSolver:  Solving for epsilon, Initial residual = 0.00209936, Final residual = 1.40522e-09, No Iterations 4
smoothSolver:  Solving for k, Initial residual = 0.0542744, Final residual = 3.83702e-09, No Iterations 7
ExecutionTime = 0.23 s  ClockTime = 0 s

Time = 9e-06

Courant Number mean: 0.0347932 max: 0.169135
diagonal:  Solving for rho, Initial residual = 0, Final residual = 0, No Iterations 0
PIMPLE: iteration 1
smoothSolver:  Solving for Ux, Initial residual = 0.0136548, Final residual = 9.50708e-07, No Iterations 2
smoothSolver:  Solving for Uy, Initial residual = 0.047828, Final residual = 7.72507e-06, No Iterations 2
smoothSolver:  Solving for e, Initial residual = 0.0278893, Final residual = 5.28417e-06, No Iterations 2
smoothSolver:  Solving for p, Initial residual = 0.0236228, Final residual = 2.79896e-09, No Iterations 4
diagonal:  Solving for rho, Initial residual = 0, Final residual = 0, No Iterations 0
time step continuity errors : sum local = 3.33871e-11, global = 2.48656e-11, cumulative = 0.000237291
PIMPLE: iteration 2
smoothSolver:  Solving for Ux, Initial residual = 0.000158788, Final residual = 1.0451e-06, No Iterations 1
smoothSolver:  Solving for Uy, Initial residual = 0.000551644, Final residual = 6.49145e-06, No Iterations 1
smoothSolver:  Solving for e, Initial residual = 0.00169989, Final residual = 9.21658e-06, No Iterations 1
smoothSolver:  Solving for p, Initial residual = 0.000487017, Final residual = 2.57483e-09, No Iterations 3
diagonal:  Solving for rho, Initial residual = 0, Final residual = 0, No Iterations 0
time step continuity errors : sum local = 3.19846e-11, global = 1.17857e-11, cumulative = 0.000237291
smoothSolver:  Solving for epsilon, Initial residual = 0.00211935, Final residual = 1.36012e-09, No Iterations 4
smoothSolver:  Solving for k, Initial residual = 0.0498622, Final residual = 3.3711e-09, No Iterations 7
ExecutionTime = 0.24 s  ClockTime = 0 s

Time = 9.5e-06

Courant Number mean: 0.0347904 max: 0.167568
diagonal:  Solving for rho, Initial residual = 0, Final residual = 0, No Iterations 0
PIMPLE: iteration 1
smoothSolver:  Solving for Ux, Initial residual = 0.0129119, Final residual = 9.10177e-07, No Iterations 2
smoothSolver:  Solving for Uy, Initial residual = 0.0451141, Final residual = 7.11909e-06, No Iterations 2
smoothSolver:  Solving for e, Initial residual = 0.0268399, Final residual = 5.01469e-06, No Iterations 2
smoothSolver:  Solving for p, Initial residual = 0.0220507, Final residual = 2.4146e-09, No Iterations 4
diagonal:  Solving for rho, Initial residual = 0, Final residual = 0, No Iterations 0
time step continuity errors : sum local = 3.07519e-11, global = 2.43321e-11, cumulative = 0.000237291
PIMPLE: iteration 2
smoothSolver:  Solving for Ux, Initial residual = 0.000144934, Final residual = 1.06306e-06, No Iterations 1
smoothSolver:  Solving for Uy, Initial residual = 0.00047899, Final residual = 5.65206e-06, No Iterations 1
smoothSolver:  Solving for e, Initial residual = 0.00158065, Final residual = 9.38948e-06, No Iterations 1
smoothSolver:  Solving for p, Initial residual = 0.00044389, Final residual = 2.87123e-09, No Iterations 3
diagonal:  Solving for rho, Initial residual = 0, Final residual = 0, No Iterations 0
time step continuity errors : sum local = 3.80153e-11, global = 2.46944e-11, cumulative = 0.000237291
smoothSolver:  Solving for epsilon, Initial residual = 0.00214542, Final residual = 1.32482e-09, No Iterations 4
smoothSolver:  Solving for k, Initial residual = 0.0460624, Final residual = 2.97371e-09, No Iterations 7
ExecutionTime = 0.25 s  ClockTime = 0 s

Time = 1e-05

Courant Number mean: 0.034788 max: 0.165928
diagonal:  Solving for rho, Initial residual = 0, Final residual = 0, No Iterations 0
PIMPLE: iteration 1
smoothSolver:  Solving for Ux, Initial residual = 0.0122383, Final residual = 8.23587e-07, No Iterations 2
smoothSolver:  Solving for Uy, Initial residual = 0.0426953, Final residual = 6.184e-06, No Iterations 2
smoothSolver:  Solving for e, Initial residual = 0.0258228, Final residual = 4.64723e-06, No Iterations 2
smoothSolver:  Solving for p, Initial residual = 0.0206464, Final residual = 2.05743e-09, No Iterations 4
diagonal:  Solving for rho, Initial residual = 0, Final residual = 0, No Iterations 0
time step continuity errors : sum local = 2.7888e-11, global = 2.42296e-11, cumulative = 0.000237291
PIMPLE: iteration 2
smoothSolver:  Solving for Ux, Initial residual = 0.000139509, Final residual = 1.0923e-06, No Iterations 1
smoothSolver:  Solving for Uy, Initial residual = 0.000482256, Final residual = 5.27053e-06, No Iterations 1
smoothSolver:  Solving for e, Initial residual = 0.0015074, Final residual = 8.21079e-06, No Iterations 1
smoothSolver:  Solving for p, Initial residual = 0.000411078, Final residual = 2.3875e-09, No Iterations 3
diagonal:  Solving for rho, Initial residual = 0, Final residual = 0, No Iterations 0
time step continuity errors : sum local = 3.3589e-11, global = 1.94134e-11, cumulative = 0.000237291
smoothSolver:  Solving for epsilon, Initial residual = 0.00217923, Final residual = 1.28407e-09, No Iterations 4
smoothSolver:  Solving for k, Initial residual = 0.0426467, Final residual = 2.59387e-09, No Iterations 7
ExecutionTime = 0.28 s  ClockTime = 0 s

Time = 1.05e-05

Courant Number mean: 0.0347862 max: 0.165766
diagonal:  Solving for rho, Initial residual = 0, Final residual = 0, No Iterations 0
PIMPLE: iteration 1
smoothSolver:  Solving for Ux, Initial residual = 0.0116298, Final residual = 8.21095e-07, No Iterations 2
smoothSolver:  Solving for Uy, Initial residual = 0.0405174, Final residual = 6.5457e-06, No Iterations 2
smoothSolver:  Solving for e, Initial residual = 0.0249263, Final residual = 4.38194e-06, No Iterations 2
smoothSolver:  Solving for p, Initial residual = 0.0194061, Final residual = 1.83097e-09, No Iterations 4
diagonal:  Solving for rho, Initial residual = 0, Final residual = 0, No Iterations 0
time step continuity errors : sum local = 2.63393e-11, global = 2.46835e-11, cumulative = 0.000237291
PIMPLE: iteration 2
smoothSolver:  Solving for Ux, Initial residual = 0.000167947, Final residual = 1.65494e-06, No Iterations 1
smoothSolver:  Solving for Uy, Initial residual = 0.00051898, Final residual = 6.12219e-06, No Iterations 1
smoothSolver:  Solving for e, Initial residual = 0.00173652, Final residual = 4.26532e-07, No Iterations 2
smoothSolver:  Solving for p, Initial residual = 0.000463462, Final residual = 2.84617e-09, No Iterations 3
diagonal:  Solving for rho, Initial residual = 0, Final residual = 0, No Iterations 0
time step continuity errors : sum local = 4.24281e-11, global = 5.26352e-12, cumulative = 0.000237291
smoothSolver:  Solving for epsilon, Initial residual = 0.00222066, Final residual = 1.24169e-09, No Iterations 4
smoothSolver:  Solving for k, Initial residual = 0.0396184, Final residual = 2.23247e-09, No Iterations 7
ExecutionTime = 0.3 s  ClockTime = 0 s

Time = 1.1e-05

Courant Number mean: 0.0347847 max: 0.167531
diagonal:  Solving for rho, Initial residual = 0, Final residual = 0, No Iterations 0
PIMPLE: iteration 1
smoothSolver:  Solving for Ux, Initial residual = 0.0110782, Final residual = 8.43083e-07, No Iterations 2
smoothSolver:  Solving for Uy, Initial residual = 0.0385952, Final residual = 6.73966e-06, No Iterations 2
smoothSolver:  Solving for e, Initial residual = 0.0241254, Final residual = 4.34512e-06, No Iterations 2
smoothSolver:  Solving for p, Initial residual = 0.018295, Final residual = 1.65805e-09, No Iterations 4
diagonal:  Solving for rho, Initial residual = 0, Final residual = 0, No Iterations 0
time step continuity errors : sum local = 2.52412e-11, global = 2.36749e-11, cumulative = 0.000237291
PIMPLE: iteration 2
smoothSolver:  Solving for Ux, Initial residual = 0.000129598, Final residual = 1.01376e-06, No Iterations 1
smoothSolver:  Solving for Uy, Initial residual = 0.000438455, Final residual = 4.43434e-06, No Iterations 1
smoothSolver:  Solving for e, Initial residual = 0.00149991, Final residual = 8.74666e-06, No Iterations 1
smoothSolver:  Solving for p, Initial residual = 0.000402024, Final residual = 1.89973e-09, No Iterations 3
diagonal:  Solving for rho, Initial residual = 0, Final residual = 0, No Iterations 0
time step continuity errors : sum local = 2.99269e-11, global = 8.53236e-12, cumulative = 0.000237291
smoothSolver:  Solving for epsilon, Initial residual = 0.00227398, Final residual = 1.194e-09, No Iterations 4
smoothSolver:  Solving for k, Initial residual = 0.0368629, Final residual = 9.80893e-09, No Iterations 6
ExecutionTime = 0.31 s  ClockTime = 0 s

Time = 1.15e-05

Courant Number mean: 0.0347833 max: 0.169301
diagonal:  Solving for rho, Initial residual = 0, Final residual = 0, No Iterations 0
PIMPLE: iteration 1
smoothSolver:  Solving for Ux, Initial residual = 0.0105761, Final residual = 8.35649e-07, No Iterations 2
smoothSolver:  Solving for Uy, Initial residual = 0.036899, Final residual = 6.76703e-06, No Iterations 2
smoothSolver:  Solving for e, Initial residual = 0.0232204, Final residual = 4.14024e-06, No Iterations 2
smoothSolver:  Solving for p, Initial residual = 0.0173187, Final residual = 1.54952e-09, No Iterations 4
diagonal:  Solving for rho, Initial residual = 0, Final residual = 0, No Iterations 0
time step continuity errors : sum local = 2.49016e-11, global = 2.30607e-11, cumulative = 0.000237291
PIMPLE: iteration 2
smoothSolver:  Solving for Ux, Initial residual = 9.66128e-05, Final residual = 5.83765e-07, No Iterations 1
smoothSolver:  Solving for Uy, Initial residual = 0.00035254, Final residual = 3.1774e-06, No Iterations 1
smoothSolver:  Solving for e, Initial residual = 0.00139215, Final residual = 8.65399e-06, No Iterations 1
smoothSolver:  Solving for p, Initial residual = 0.000361116, Final residual = 1.49385e-09, No Iterations 3
diagonal:  Solving for rho, Initial residual = 0, Final residual = 0, No Iterations 0
time step continuity errors : sum local = 2.48095e-11, global = 3.34676e-12, cumulative = 0.000237291
smoothSolver:  Solving for epsilon, Initial residual = 0.00233753, Final residual = 1.14685e-09, No Iterations 4
smoothSolver:  Solving for k, Initial residual = 0.0345021, Final residual = 8.19534e-09, No Iterations 6
ExecutionTime = 0.32 s  ClockTime = 1 s

Time = 1.2e-05

Courant Number mean: 0.0347818 max: 0.171071
diagonal:  Solving for rho, Initial residual = 0, Final residual = 0, No Iterations 0
PIMPLE: iteration 1
smoothSolver:  Solving for Ux, Initial residual = 0.0101193, Final residual = 7.97354e-07, No Iterations 2
smoothSolver:  Solving for Uy, Initial residual = 0.0353087, Final residual = 6.60658e-06, No Iterations 2
smoothSolver:  Solving for e, Initial residual = 0.0219635, Final residual = 4.0572e-06, No Iterations 2
smoothSolver:  Solving for p, Initial residual = 0.0164616, Final residual = 1.51726e-09, No Iterations 4
diagonal:  Solving for rho, Initial residual = 0, Final residual = 0, No Iterations 0
time step continuity errors : sum local = 2.56823e-11, global = 2.36422e-11, cumulative = 0.000237291
PIMPLE: iteration 2
smoothSolver:  Solving for Ux, Initial residual = 9.59831e-05, Final residual = 5.39071e-07, No Iterations 1
smoothSolver:  Solving for Uy, Initial residual = 0.000339549, Final residual = 3.04215e-06, No Iterations 1
smoothSolver:  Solving for e, Initial residual = 0.00139603, Final residual = 9.16154e-06, No Iterations 1
smoothSolver:  Solving for p, Initial residual = 0.000400779, Final residual = 1.5036e-09, No Iterations 3
diagonal:  Solving for rho, Initial residual = 0, Final residual = 0, No Iterations 0
time step continuity errors : sum local = 2.62673e-11, global = -4.06921e-12, cumulative = 0.000237291
smoothSolver:  Solving for epsilon, Initial residual = 0.00240479, Final residual = 1.22613e-09, No Iterations 4
smoothSolver:  Solving for k, Initial residual = 0.0322533, Final residual = 8.36644e-09, No Iterations 6
ExecutionTime = 0.33 s  ClockTime = 1 s

Time = 1.25e-05

Courant Number mean: 0.0347805 max: 0.172786
diagonal:  Solving for rho, Initial residual = 0, Final residual = 0, No Iterations 0
PIMPLE: iteration 1
smoothSolver:  Solving for Ux, Initial residual = 0.00970263, Final residual = 7.64285e-07, No Iterations 2
smoothSolver:  Solving for Uy, Initial residual = 0.0338323, Final residual = 6.44332e-06, No Iterations 2
smoothSolver:  Solving for e, Initial residual = 0.0208175, Final residual = 3.99402e-06, No Iterations 2
smoothSolver:  Solving for p, Initial residual = 0.015669, Final residual = 1.48296e-09, No Iterations 4
diagonal:  Solving for rho, Initial residual = 0, Final residual = 0, No Iterations 0
time step continuity errors : sum local = 2.63794e-11, global = 2.4209e-11, cumulative = 0.000237291
PIMPLE: iteration 2
smoothSolver:  Solving for Ux, Initial residual = 0.000123218, Final residual = 5.5626e-07, No Iterations 1
smoothSolver:  Solving for Uy, Initial residual = 0.000346941, Final residual = 2.94236e-06, No Iterations 1
smoothSolver:  Solving for e, Initial residual = 0.00156785, Final residual = 9.50074e-06, No Iterations 1
smoothSolver:  Solving for p, Initial residual = 0.000582992, Final residual = 1.35729e-09, No Iterations 3
diagonal:  Solving for rho, Initial residual = 0, Final residual = 0, No Iterations 0
time step continuity errors : sum local = 2.48863e-11, global = -7.42421e-12, cumulative = 0.000237291
smoothSolver:  Solving for epsilon, Initial residual = 0.00247148, Final residual = 1.18352e-09, No Iterations 4
smoothSolver:  Solving for k, Initial residual = 0.0303651, Final residual = 7.16746e-09, No Iterations 6
ExecutionTime = 0.34 s  ClockTime = 1 s

Time = 1.3e-05

Courant Number mean: 0.034777 max: 0.174406
diagonal:  Solving for rho, Initial residual = 0, Final residual = 0, No Iterations 0
PIMPLE: iteration 1
smoothSolver:  Solving for Ux, Initial residual = 0.00931344, Final residual = 7.33705e-07, No Iterations 2
smoothSolver:  Solving for Uy, Initial residual = 0.032457, Final residual = 6.28875e-06, No Iterations 2
smoothSolver:  Solving for e, Initial residual = 0.0197522, Final residual = 3.97328e-06, No Iterations 2
smoothSolver:  Solving for p, Initial residual = 0.0149223, Final residual = 1.44773e-09, No Iterations 4
diagonal:  Solving for rho, Initial residual = 0, Final residual = 0, No Iterations 0
time step continuity errors : sum local = 2.69985e-11, global = 2.46658e-11, cumulative = 0.000237291
PIMPLE: iteration 2
smoothSolver:  Solving for Ux, Initial residual = 0.00012636, Final residual = 5.42176e-07, No Iterations 1
smoothSolver:  Solving for Uy, Initial residual = 0.000334595, Final residual = 2.81401e-06, No Iterations 1
smoothSolver:  Solving for e, Initial residual = 0.00136218, Final residual = 8.88525e-06, No Iterations 1
smoothSolver:  Solving for p, Initial residual = 0.000441061, Final residual = 1.48662e-09, No Iterations 3
diagonal:  Solving for rho, Initial residual = 0, Final residual = 0, No Iterations 0
time step continuity errors : sum local = 2.85441e-11, global = -8.89755e-12, cumulative = 0.000237291
smoothSolver:  Solving for epsilon, Initial residual = 0.00254811, Final residual = 1.15893e-09, No Iterations 4
smoothSolver:  Solving for k, Initial residual = 0.0287209, Final residual = 6.18884e-09, No Iterations 6
ExecutionTime = 0.35 s  ClockTime = 1 s

Time = 1.35e-05

Courant Number mean: 0.0347726 max: 0.17591
diagonal:  Solving for rho, Initial residual = 0, Final residual = 0, No Iterations 0
PIMPLE: iteration 1
smoothSolver:  Solving for Ux, Initial residual = 0.00895444, Final residual = 7.10235e-07, No Iterations 2
smoothSolver:  Solving for Uy, Initial residual = 0.031174, Final residual = 6.13251e-06, No Iterations 2
smoothSolver:  Solving for e, Initial residual = 0.0188897, Final residual = 3.99146e-06, No Iterations 2
smoothSolver:  Solving for p, Initial residual = 0.0142392, Final residual = 1.92107e-09, No Iterations 4
diagonal:  Solving for rho, Initial residual = 0, Final residual = 0, No Iterations 0
time step continuity errors : sum local = 3.74805e-11, global = 3.48718e-11, cumulative = 0.000237291
PIMPLE: iteration 2
smoothSolver:  Solving for Ux, Initial residual = 0.000117715, Final residual = 5.05876e-07, No Iterations 1
smoothSolver:  Solving for Uy, Initial residual = 0.000308567, Final residual = 2.65235e-06, No Iterations 1
smoothSolver:  Solving for e, Initial residual = 0.00113876, Final residual = 7.42672e-06, No Iterations 1
smoothSolver:  Solving for p, Initial residual = 0.000333607, Final residual = 1.25386e-09, No Iterations 3
diagonal:  Solving for rho, Initial residual = 0, Final residual = 0, No Iterations 0
time step continuity errors : sum local = 2.51608e-11, global = -6.59478e-12, cumulative = 0.000237291
smoothSolver:  Solving for epsilon, Initial residual = 0.0026315, Final residual = 1.11819e-09, No Iterations 4
smoothSolver:  Solving for k, Initial residual = 0.0272367, Final residual = 5.24715e-09, No Iterations 6
ExecutionTime = 0.36 s  ClockTime = 1 s

Time = 1.4e-05

Courant Number mean: 0.034768 max: 0.177449
diagonal:  Solving for rho, Initial residual = 0, Final residual = 0, No Iterations 0
PIMPLE: iteration 1
smoothSolver:  Solving for Ux, Initial residual = 0.00862494, Final residual = 6.88132e-07, No Iterations 2
smoothSolver:  Solving for Uy, Initial residual = 0.0299592, Final residual = 5.97271e-06, No Iterations 2
smoothSolver:  Solving for e, Initial residual = 0.0180725, Final residual = 3.97925e-06, No Iterations 2
smoothSolver:  Solving for p, Initial residual = 0.0136061, Final residual = 1.79725e-09, No Iterations 4
diagonal:  Solving for rho, Initial residual = 0, Final residual = 0, No Iterations 0
time step continuity errors : sum local = 3.66123e-11, global = 3.39029e-11, cumulative = 0.000237291
PIMPLE: iteration 2
smoothSolver:  Solving for Ux, Initial residual = 0.000139201, Final residual = 5.24749e-07, No Iterations 1
smoothSolver:  Solving for Uy, Initial residual = 0.000286793, Final residual = 2.57008e-06, No Iterations 1
smoothSolver:  Solving for e, Initial residual = 0.00107162, Final residual = 6.17446e-06, No Iterations 1
smoothSolver:  Solving for p, Initial residual = 0.000290048, Final residual = 1.93729e-09, No Iterations 3
diagonal:  Solving for rho, Initial residual = 0, Final residual = 0, No Iterations 0
time step continuity errors : sum local = 4.05505e-11, global = 1.18645e-11, cumulative = 0.000237291
smoothSolver:  Solving for epsilon, Initial residual = 0.00271612, Final residual = 1.14261e-09, No Iterations 4
smoothSolver:  Solving for k, Initial residual = 0.0258804, Final residual = 4.9281e-09, No Iterations 6
ExecutionTime = 0.38 s  ClockTime = 1 s

Time = 1.45e-05

Courant Number mean: 0.0347633 max: 0.179326
diagonal:  Solving for rho, Initial residual = 0, Final residual = 0, No Iterations 0
PIMPLE: iteration 1
smoothSolver:  Solving for Ux, Initial residual = 0.00833785, Final residual = 6.65008e-07, No Iterations 2
smoothSolver:  Solving for Uy, Initial residual = 0.0287841, Final residual = 5.81478e-06, No Iterations 2
smoothSolver:  Solving for e, Initial residual = 0.01735, Final residual = 3.89476e-06, No Iterations 2
smoothSolver:  Solving for p, Initial residual = 0.0130267, Final residual = 1.66233e-09, No Iterations 4
diagonal:  Solving for rho, Initial residual = 0, Final residual = 0, No Iterations 0
time step continuity errors : sum local = 3.52915e-11, global = 3.25151e-11, cumulative = 0.000237291
PIMPLE: iteration 2
smoothSolver:  Solving for Ux, Initial residual = 9.60233e-05, Final residual = 4.4883e-07, No Iterations 1
smoothSolver:  Solving for Uy, Initial residual = 0.000271419, Final residual = 2.43197e-06, No Iterations 1
smoothSolver:  Solving for e, Initial residual = 0.00092441, Final residual = 5.02514e-06, No Iterations 1
smoothSolver:  Solving for p, Initial residual = 0.000254782, Final residual = 1.85392e-09, No Iterations 3
diagonal:  Solving for rho, Initial residual = 0, Final residual = 0, No Iterations 0
time step continuity errors : sum local = 4.04074e-11, global = 9.10268e-12, cumulative = 0.000237291
smoothSolver:  Solving for epsilon, Initial residual = 0.00280994, Final residual = 1.12052e-09, No Iterations 4
smoothSolver:  Solving for k, Initial residual = 0.0246362, Final residual = 4.27941e-09, No Iterations 6
ExecutionTime = 0.39 s  ClockTime = 1 s

Time = 1.5e-05

Courant Number mean: 0.0347588 max: 0.181141
diagonal:  Solving for rho, Initial residual = 0, Final residual = 0, No Iterations 0
PIMPLE: iteration 1
smoothSolver:  Solving for Ux, Initial residual = 0.00803834, Final residual = 6.43107e-07, No Iterations 2
smoothSolver:  Solving for Uy, Initial residual = 0.0276886, Final residual = 5.65078e-06, No Iterations 2
smoothSolver:  Solving for e, Initial residual = 0.0165257, Final residual = 3.81628e-06, No Iterations 2
smoothSolver:  Solving for p, Initial residual = 0.0125101, Final residual = 1.89981e-09, No Iterations 4
diagonal:  Solving for rho, Initial residual = 0, Final residual = 0, No Iterations 0
time step continuity errors : sum local = 4.19667e-11, global = 3.9153e-11, cumulative = 0.000237291
PIMPLE: iteration 2
smoothSolver:  Solving for Ux, Initial residual = 0.000103314, Final residual = 4.98063e-07, No Iterations 1
smoothSolver:  Solving for Uy, Initial residual = 0.000252206, Final residual = 2.3742e-06, No Iterations 1
smoothSolver:  Solving for e, Initial residual = 0.00090594, Final residual = 5.0415e-06, No Iterations 1
smoothSolver:  Solving for p, Initial residual = 0.000241578, Final residual = 1.61001e-09, No Iterations 3
diagonal:  Solving for rho, Initial residual = 0, Final residual = 0, No Iterations 0
time step continuity errors : sum local = 3.6482e-11, global = 5.27456e-12, cumulative = 0.000237291
smoothSolver:  Solving for epsilon, Initial residual = 0.00291687, Final residual = 1.09653e-09, No Iterations 4
smoothSolver:  Solving for k, Initial residual = 0.0235594, Final residual = 3.63842e-09, No Iterations 6
ExecutionTime = 0.4 s  ClockTime = 1 s

Time = 1.55e-05

Courant Number mean: 0.0347548 max: 0.182817
diagonal:  Solving for rho, Initial residual = 0, Final residual = 0, No Iterations 0
PIMPLE: iteration 1
smoothSolver:  Solving for Ux, Initial residual = 0.00775885, Final residual = 6.24362e-07, No Iterations 2
smoothSolver:  Solving for Uy, Initial residual = 0.0266682, Final residual = 5.49053e-06, No Iterations 2
smoothSolver:  Solving for e, Initial residual = 0.0157498, Final residual = 3.7258e-06, No Iterations 2
smoothSolver:  Solving for p, Initial residual = 0.0120376, Final residual = 2.02308e-09, No Iterations 4
diagonal:  Solving for rho, Initial residual = 0, Final residual = 0, No Iterations 0
time step continuity errors : sum local = 4.64291e-11, global = 4.35282e-11, cumulative = 0.000237291
PIMPLE: iteration 2
smoothSolver:  Solving for Ux, Initial residual = 8.84337e-05, Final residual = 4.51323e-07, No Iterations 1
smoothSolver:  Solving for Uy, Initial residual = 0.000242844, Final residual = 2.35234e-06, No Iterations 1
smoothSolver:  Solving for e, Initial residual = 0.000810176, Final residual = 4.81895e-06, No Iterations 1
smoothSolver:  Solving for p, Initial residual = 0.000223846, Final residual = 1.56941e-09, No Iterations 3
diagonal:  Solving for rho, Initial residual = 0, Final residual = 0, No Iterations 0
time step continuity errors : sum local = 3.69184e-11, global = 3.6546e-12, cumulative = 0.000237291
smoothSolver:  Solving for epsilon, Initial residual = 0.00303251, Final residual = 1.1099e-09, No Iterations 4
smoothSolver:  Solving for k, Initial residual = 0.0226033, Final residual = 3.26585e-09, No Iterations 6
ExecutionTime = 0.42 s  ClockTime = 1 s

Time = 1.6e-05

Courant Number mean: 0.0347516 max: 0.184413
diagonal:  Solving for rho, Initial residual = 0, Final residual = 0, No Iterations 0
PIMPLE: iteration 1
smoothSolver:  Solving for Ux, Initial residual = 0.00750054, Final residual = 6.04214e-07, No Iterations 2
smoothSolver:  Solving for Uy, Initial residual = 0.0257116, Final residual = 5.32911e-06, No Iterations 2
smoothSolver:  Solving for e, Initial residual = 0.0150207, Final residual = 3.64683e-06, No Iterations 2
smoothSolver:  Solving for p, Initial residual = 0.011596, Final residual = 1.99428e-09, No Iterations 4
diagonal:  Solving for rho, Initial residual = 0, Final residual = 0, No Iterations 0
time step continuity errors : sum local = 4.74851e-11, global = 4.4559e-11, cumulative = 0.000237291
PIMPLE: iteration 2
smoothSolver:  Solving for Ux, Initial residual = 8.67837e-05, Final residual = 5.04666e-07, No Iterations 1
smoothSolver:  Solving for Uy, Initial residual = 0.000246675, Final residual = 2.47063e-06, No Iterations 1
smoothSolver:  Solving for e, Initial residual = 0.000753952, Final residual = 4.68493e-06, No Iterations 1
smoothSolver:  Solving for p, Initial residual = 0.00021015, Final residual = 1.64552e-09, No Iterations 3
diagonal:  Solving for rho, Initial residual = 0, Final residual = 0, No Iterations 0
time step continuity errors : sum local = 4.0131e-11, global = 5.39838e-12, cumulative = 0.000237291
smoothSolver:  Solving for epsilon, Initial residual = 0.00315389, Final residual = 1.10984e-09, No Iterations 4
smoothSolver:  Solving for k, Initial residual = 0.0216443, Final residual = 2.91353e-09, No Iterations 6
ExecutionTime = 0.43 s  ClockTime = 1 s

Time = 1.65e-05

Courant Number mean: 0.034749 max: 0.185868
diagonal:  Solving for rho, Initial residual = 0, Final residual = 0, No Iterations 0
PIMPLE: iteration 1
smoothSolver:  Solving for Ux, Initial residual = 0.00725659, Final residual = 5.80514e-07, No Iterations 2
smoothSolver:  Solving for Uy, Initial residual = 0.0248151, Final residual = 5.16809e-06, No Iterations 2
smoothSolver:  Solving for e, Initial residual = 0.0143966, Final residual = 3.55019e-06, No Iterations 2
smoothSolver:  Solving for p, Initial residual = 0.0111853, Final residual = 1.97081e-09, No Iterations 4
diagonal:  Solving for rho, Initial residual = 0, Final residual = 0, No Iterations 0
time step continuity errors : sum local = 4.86253e-11, global = 4.57013e-11, cumulative = 0.000237292
PIMPLE: iteration 2
smoothSolver:  Solving for Ux, Initial residual = 8.43983e-05, Final residual = 5.11333e-07, No Iterations 1
smoothSolver:  Solving for Uy, Initial residual = 0.000248049, Final residual = 2.45671e-06, No Iterations 1
smoothSolver:  Solving for e, Initial residual = 0.000707993, Final residual = 4.77946e-06, No Iterations 1
smoothSolver:  Solving for p, Initial residual = 0.000209741, Final residual = 1.41363e-09, No Iterations 3
diagonal:  Solving for rho, Initial residual = 0, Final residual = 0, No Iterations 0
time step continuity errors : sum local = 3.56978e-11, global = 1.39841e-12, cumulative = 0.000237292
smoothSolver:  Solving for epsilon, Initial residual = 0.0032815, Final residual = 1.1747e-09, No Iterations 4
smoothSolver:  Solving for k, Initial residual = 0.0208201, Final residual = 2.77529e-09, No Iterations 6
ExecutionTime = 0.44 s  ClockTime = 1 s

Time = 1.7e-05

Courant Number mean: 0.0347472 max: 0.187143
diagonal:  Solving for rho, Initial residual = 0, Final residual = 0, No Iterations 0
PIMPLE: iteration 1
smoothSolver:  Solving for Ux, Initial residual = 0.00702469, Final residual = 5.58756e-07, No Iterations 2
smoothSolver:  Solving for Uy, Initial residual = 0.023971, Final residual = 5.00845e-06, No Iterations 2
smoothSolver:  Solving for e, Initial residual = 0.013784, Final residual = 3.39688e-06, No Iterations 2
smoothSolver:  Solving for p, Initial residual = 0.0108277, Final residual = 1.91977e-09, No Iterations 4
diagonal:  Solving for rho, Initial residual = 0, Final residual = 0, No Iterations 0
time step continuity errors : sum local = 4.90209e-11, global = 4.6118e-11, cumulative = 0.000237292
PIMPLE: iteration 2
smoothSolver:  Solving for Ux, Initial residual = 8.47059e-05, Final residual = 5.04575e-07, No Iterations 1
smoothSolver:  Solving for Uy, Initial residual = 0.000254336, Final residual = 2.52652e-06, No Iterations 1
smoothSolver:  Solving for e, Initial residual = 0.000747669, Final residual = 5.20584e-06, No Iterations 1
smoothSolver:  Solving for p, Initial residual = 0.000211269, Final residual = 1.21283e-09, No Iterations 3
diagonal:  Solving for rho, Initial residual = 0, Final residual = 0, No Iterations 0
time step continuity errors : sum local = 3.16754e-11, global = -2.44061e-12, cumulative = 0.000237292
smoothSolver:  Solving for epsilon, Initial residual = 0.00341436, Final residual = 1.16023e-09, No Iterations 4
smoothSolver:  Solving for k, Initial residual = 0.0200315, Final residual = 2.37528e-09, No Iterations 6
ExecutionTime = 0.44 s  ClockTime = 1 s

Time = 1.75e-05

Courant Number mean: 0.0347459 max: 0.188242
diagonal:  Solving for rho, Initial residual = 0, Final residual = 0, No Iterations 0
PIMPLE: iteration 1
smoothSolver:  Solving for Ux, Initial residual = 0.0068035, Final residual = 5.39635e-07, No Iterations 2
smoothSolver:  Solving for Uy, Initial residual = 0.0231794, Final residual = 4.85218e-06, No Iterations 2
smoothSolver:  Solving for e, Initial residual = 0.0131814, Final residual = 3.2581e-06, No Iterations 2
smoothSolver:  Solving for p, Initial residual = 0.0105048, Final residual = 1.85493e-09, No Iterations 4
diagonal:  Solving for rho, Initial residual = 0, Final residual = 0, No Iterations 0
time step continuity errors : sum local = 4.89656e-11, global = 4.60972e-11, cumulative = 0.000237292
PIMPLE: iteration 2
smoothSolver:  Solving for Ux, Initial residual = 9.15927e-05, Final residual = 5.36448e-07, No Iterations 1
smoothSolver:  Solving for Uy, Initial residual = 0.000288062, Final residual = 2.78138e-06, No Iterations 1
smoothSolver:  Solving for e, Initial residual = 0.000727098, Final residual = 5.20195e-06, No Iterations 1
smoothSolver:  Solving for p, Initial residual = 0.000208608, Final residual = 1.18013e-09, No Iterations 3
diagonal:  Solving for rho, Initial residual = 0, Final residual = 0, No Iterations 0
time step continuity errors : sum local = 3.18405e-11, global = -2.74448e-12, cumulative = 0.000237292
smoothSolver:  Solving for epsilon, Initial residual = 0.00355457, Final residual = 1.22837e-09, No Iterations 4
smoothSolver:  Solving for k, Initial residual = 0.0193114, Final residual = 2.29281e-09, No Iterations 6
ExecutionTime = 0.45 s  ClockTime = 1 s

Time = 1.8e-05

Courant Number mean: 0.034745 max: 0.1892
diagonal:  Solving for rho, Initial residual = 0, Final residual = 0, No Iterations 0
PIMPLE: iteration 1
smoothSolver:  Solving for Ux, Initial residual = 0.00660052, Final residual = 5.17673e-07, No Iterations 2
smoothSolver:  Solving for Uy, Initial residual = 0.0224364, Final residual = 4.66577e-06, No Iterations 2
smoothSolver:  Solving for e, Initial residual = 0.012601, Final residual = 3.13081e-06, No Iterations 2
smoothSolver:  Solving for p, Initial residual = 0.0102095, Final residual = 1.80445e-09, No Iterations 4
diagonal:  Solving for rho, Initial residual = 0, Final residual = 0, No Iterations 0
time step continuity errors : sum local = 4.91886e-11, global = 4.63663e-11, cumulative = 0.000237292
PIMPLE: iteration 2
smoothSolver:  Solving for Ux, Initial residual = 8.33644e-05, Final residual = 5.354e-07, No Iterations 1
smoothSolver:  Solving for Uy, Initial residual = 0.000241395, Final residual = 2.47173e-06, No Iterations 1
smoothSolver:  Solving for e, Initial residual = 0.000711593, Final residual = 5.55097e-06, No Iterations 1
smoothSolver:  Solving for p, Initial residual = 0.000207284, Final residual = 1.58006e-09, No Iterations 3
diagonal:  Solving for rho, Initial residual = 0, Final residual = 0, No Iterations 0
time step continuity errors : sum local = 4.39924e-11, global = 4.28922e-12, cumulative = 0.000237292
smoothSolver:  Solving for epsilon, Initial residual = 0.00369771, Final residual = 1.2156e-09, No Iterations 4
smoothSolver:  Solving for k, Initial residual = 0.0186418, Final residual = 1.90884e-09, No Iterations 6
ExecutionTime = 0.46 s  ClockTime = 1 s

Time = 1.85e-05

Courant Number mean: 0.0347443 max: 0.190021
diagonal:  Solving for rho, Initial residual = 0, Final residual = 0, No Iterations 0
PIMPLE: iteration 1
smoothSolver:  Solving for Ux, Initial residual = 0.00640114, Final residual = 5.07837e-07, No Iterations 2
smoothSolver:  Solving for Uy, Initial residual = 0.0217376, Final residual = 4.52555e-06, No Iterations 2
smoothSolver:  Solving for e, Initial residual = 0.0120246, Final residual = 3.00158e-06, No Iterations 2
smoothSolver:  Solving for p, Initial residual = 0.00992767, Final residual = 1.80697e-09, No Iterations 4
diagonal:  Solving for rho, Initial residual = 0, Final residual = 0, No Iterations 0
time step continuity errors : sum local = 5.08106e-11, global = 4.75118e-11, cumulative = 0.000237292
PIMPLE: iteration 2
smoothSolver:  Solving for Ux, Initial residual = 8.56321e-05, Final residual = 5.5414e-07, No Iterations 1
smoothSolver:  Solving for Uy, Initial residual = 0.000263399, Final residual = 2.61074e-06, No Iterations 1
smoothSolver:  Solving for e, Initial residual = 0.000704848, Final residual = 6.14738e-06, No Iterations 1
smoothSolver:  Solving for p, Initial residual = 0.00019496, Final residual = 1.38829e-09, No Iterations 3
diagonal:  Solving for rho, Initial residual = 0, Final residual = 0, No Iterations 0
time step continuity errors : sum local = 3.98475e-11, global = 7.81147e-12, cumulative = 0.000237292
smoothSolver:  Solving for epsilon, Initial residual = 0.00384627, Final residual = 1.29488e-09, No Iterations 4
smoothSolver:  Solving for k, Initial residual = 0.0180083, Final residual = 9.70293e-09, No Iterations 5
ExecutionTime = 0.47 s  ClockTime = 1 s

Time = 1.9e-05

Courant Number mean: 0.0347435 max: 0.190692
diagonal:  Solving for rho, Initial residual = 0, Final residual = 0, No Iterations 0
PIMPLE: iteration 1
smoothSolver:  Solving for Ux, Initial residual = 0.0062118, Final residual = 5.06993e-07, No Iterations 2
smoothSolver:  Solving for Uy, Initial residual = 0.0210759, Final residual = 4.38894e-06, No Iterations 2
smoothSolver:  Solving for e, Initial residual = 0.0115282, Final residual = 2.87808e-06, No Iterations 2
smoothSolver:  Solving for p, Initial residual = 0.0096394, Final residual = 1.82162e-09, No Iterations 4
diagonal:  Solving for rho, Initial residual = 0, Final residual = 0, No Iterations 0
time step continuity errors : sum local = 5.27855e-11, global = 4.73146e-11, cumulative = 0.000237292
PIMPLE: iteration 2
smoothSolver:  Solving for Ux, Initial residual = 8.29928e-05, Final residual = 5.72425e-07, No Iterations 1
smoothSolver:  Solving for Uy, Initial residual = 0.000261237, Final residual = 2.70699e-06, No Iterations 1
smoothSolver:  Solving for e, Initial residual = 0.000683843, Final residual = 6.26869e-06, No Iterations 1
smoothSolver:  Solving for p, Initial residual = 0.000197424, Final residual = 1.404e-09, No Iterations 3
diagonal:  Solving for rho, Initial residual = 0, Final residual = 0, No Iterations 0
time step continuity errors : sum local = 4.15036e-11, global = 1.18911e-11, cumulative = 0.000237292
smoothSolver:  Solving for epsilon, Initial residual = 0.00399609, Final residual = 1.332e-09, No Iterations 4
smoothSolver:  Solving for k, Initial residual = 0.0174179, Final residual = 8.59626e-09, No Iterations 5
ExecutionTime = 0.48 s  ClockTime = 1 s

Time = 1.95e-05

Courant Number mean: 0.0347428 max: 0.191154
diagonal:  Solving for rho, Initial residual = 0, Final residual = 0, No Iterations 0
PIMPLE: iteration 1
smoothSolver:  Solving for Ux, Initial residual = 0.00604211, Final residual = 5.04706e-07, No Iterations 2
smoothSolver:  Solving for Uy, Initial residual = 0.0204445, Final residual = 4.25484e-06, No Iterations 2
smoothSolver:  Solving for e, Initial residual = 0.0111117, Final residual = 2.75271e-06, No Iterations 2
smoothSolver:  Solving for p, Initial residual = 0.00936514, Final residual = 1.81474e-09, No Iterations 4
diagonal:  Solving for rho, Initial residual = 0, Final residual = 0, No Iterations 0
time step continuity errors : sum local = 5.41396e-11, global = 4.6368e-11, cumulative = 0.000237292
PIMPLE: iteration 2
smoothSolver:  Solving for Ux, Initial residual = 7.8059e-05, Final residual = 5.68213e-07, No Iterations 1
smoothSolver:  Solving for Uy, Initial residual = 0.000261229, Final residual = 2.79126e-06, No Iterations 1
smoothSolver:  Solving for e, Initial residual = 0.000644545, Final residual = 6.04571e-06, No Iterations 1
smoothSolver:  Solving for p, Initial residual = 0.000190481, Final residual = 1.7045e-09, No Iterations 3
diagonal:  Solving for rho, Initial residual = 0, Final residual = 0, No Iterations 0
time step continuity errors : sum local = 5.1845e-11, global = 1.44919e-11, cumulative = 0.000237292
smoothSolver:  Solving for epsilon, Initial residual = 0.00414363, Final residual = 1.37974e-09, No Iterations 4
smoothSolver:  Solving for k, Initial residual = 0.0168406, Final residual = 7.88099e-09, No Iterations 5
ExecutionTime = 0.49 s  ClockTime = 1 s

Time = 2e-05

Courant Number mean: 0.0347422 max: 0.191312
diagonal:  Solving for rho, Initial residual = 0, Final residual = 0, No Iterations 0
PIMPLE: iteration 1
smoothSolver:  Solving for Ux, Initial residual = 0.00587252, Final residual = 5.00539e-07, No Iterations 2
smoothSolver:  Solving for Uy, Initial residual = 0.0198402, Final residual = 4.12322e-06, No Iterations 2
smoothSolver:  Solving for e, Initial residual = 0.0107036, Final residual = 2.60648e-06, No Iterations 2
smoothSolver:  Solving for p, Initial residual = 0.00909458, Final residual = 1.84379e-09, No Iterations 4
diagonal:  Solving for rho, Initial residual = 0, Final residual = 0, No Iterations 0
time step continuity errors : sum local = 5.65799e-11, global = 4.44383e-11, cumulative = 0.000237292
PIMPLE: iteration 2
smoothSolver:  Solving for Ux, Initial residual = 7.63707e-05, Final residual = 5.68799e-07, No Iterations 1
smoothSolver:  Solving for Uy, Initial residual = 0.000260403, Final residual = 2.76415e-06, No Iterations 1
smoothSolver:  Solving for e, Initial residual = 0.000660397, Final residual = 5.93005e-06, No Iterations 1
smoothSolver:  Solving for p, Initial residual = 0.000204229, Final residual = 2.27996e-09, No Iterations 3
diagonal:  Solving for rho, Initial residual = 0, Final residual = 0, No Iterations 0
time step continuity errors : sum local = 7.12923e-11, global = 1.30258e-11, cumulative = 0.000237292
smoothSolver:  Solving for epsilon, Initial residual = 0.00428582, Final residual = 1.40469e-09, No Iterations 4
smoothSolver:  Solving for k, Initial residual = 0.0162982, Final residual = 6.74894e-09, No Iterations 5
ExecutionTime = 0.51 s  ClockTime = 1 s

Time = 2.05e-05

Courant Number mean: 0.0347424 max: 0.191154
diagonal:  Solving for rho, Initial residual = 0, Final residual = 0, No Iterations 0
PIMPLE: iteration 1
smoothSolver:  Solving for Ux, Initial residual = 0.00571266, Final residual = 4.94037e-07, No Iterations 2
smoothSolver:  Solving for Uy, Initial residual = 0.0192679, Final residual = 3.99268e-06, No Iterations 2
smoothSolver:  Solving for e, Initial residual = 0.0102983, Final residual = 2.44902e-06, No Iterations 2
smoothSolver:  Solving for p, Initial residual = 0.00889752, Final residual = 2.52781e-09, No Iterations 4
diagonal:  Solving for rho, Initial residual = 0, Final residual = 0, No Iterations 0
time step continuity errors : sum local = 7.97171e-11, global = 6.06473e-11, cumulative = 0.000237292
PIMPLE: iteration 2
smoothSolver:  Solving for Ux, Initial residual = 7.64958e-05, Final residual = 5.83925e-07, No Iterations 1
smoothSolver:  Solving for Uy, Initial residual = 0.000263244, Final residual = 2.80354e-06, No Iterations 1
smoothSolver:  Solving for e, Initial residual = 0.000671828, Final residual = 5.84846e-06, No Iterations 1
smoothSolver:  Solving for p, Initial residual = 0.000207347, Final residual = 2.2429e-09, No Iterations 3
diagonal:  Solving for rho, Initial residual = 0, Final residual = 0, No Iterations 0
time step continuity errors : sum local = 7.20374e-11, global = 1.08316e-11, cumulative = 0.000237292
smoothSolver:  Solving for epsilon, Initial residual = 0.00442244, Final residual = 1.45573e-09, No Iterations 4
smoothSolver:  Solving for k, Initial residual = 0.0157527, Final residual = 6.09418e-09, No Iterations 5
ExecutionTime = 0.53 s  ClockTime = 1 s

Time = 2.1e-05

Courant Number mean: 0.034743 max: 0.194256
diagonal:  Solving for rho, Initial residual = 0, Final residual = 0, No Iterations 0
PIMPLE: iteration 1
smoothSolver:  Solving for Ux, Initial residual = 0.00555673, Final residual = 4.86088e-07, No Iterations 2
smoothSolver:  Solving for Uy, Initial residual = 0.0187228, Final residual = 3.86368e-06, No Iterations 2
smoothSolver:  Solving for e, Initial residual = 0.00989153, Final residual = 2.33735e-06, No Iterations 2
smoothSolver:  Solving for p, Initial residual = 0.00873378, Final residual = 2.60558e-09, No Iterations 4
diagonal:  Solving for rho, Initial residual = 0, Final residual = 0, No Iterations 0
time step continuity errors : sum local = 8.43716e-11, global = 5.88588e-11, cumulative = 0.000237292
PIMPLE: iteration 2
smoothSolver:  Solving for Ux, Initial residual = 7.91342e-05, Final residual = 5.97434e-07, No Iterations 1
smoothSolver:  Solving for Uy, Initial residual = 0.000265972, Final residual = 2.81654e-06, No Iterations 1
smoothSolver:  Solving for e, Initial residual = 0.000681697, Final residual = 5.87682e-06, No Iterations 1
smoothSolver:  Solving for p, Initial residual = 0.000210205, Final residual = 1.8513e-09, No Iterations 3
diagonal:  Solving for rho, Initial residual = 0, Final residual = 0, No Iterations 0
time step continuity errors : sum local = 6.10241e-11, global = -7.81002e-12, cumulative = 0.000237292
smoothSolver:  Solving for epsilon, Initial residual = 0.00456525, Final residual = 1.51798e-09, No Iterations 4
smoothSolver:  Solving for k, Initial residual = 0.0152306, Final residual = 5.66662e-09, No Iterations 5
ExecutionTime = 0.54 s  ClockTime = 1 s

Time = 2.15e-05

Courant Number mean: 0.0347442 max: 0.197967
diagonal:  Solving for rho, Initial residual = 0, Final residual = 0, No Iterations 0
PIMPLE: iteration 1
smoothSolver:  Solving for Ux, Initial residual = 0.00540855, Final residual = 4.76762e-07, No Iterations 2
smoothSolver:  Solving for Uy, Initial residual = 0.0182004, Final residual = 3.73788e-06, No Iterations 2
smoothSolver:  Solving for e, Initial residual = 0.00951871, Final residual = 2.34638e-06, No Iterations 2
smoothSolver:  Solving for p, Initial residual = 0.00859242, Final residual = 2.7168e-09, No Iterations 4
diagonal:  Solving for rho, Initial residual = 0, Final residual = 0, No Iterations 0
time step continuity errors : sum local = 9.02566e-11, global = 5.58806e-11, cumulative = 0.000237292
PIMPLE: iteration 2
smoothSolver:  Solving for Ux, Initial residual = 7.72031e-05, Final residual = 5.89779e-07, No Iterations 1
smoothSolver:  Solving for Uy, Initial residual = 0.000259079, Final residual = 2.73464e-06, No Iterations 1
smoothSolver:  Solving for e, Initial residual = 0.000658057, Final residual = 5.7487e-06, No Iterations 1
smoothSolver:  Solving for p, Initial residual = 0.00021023, Final residual = 1.45184e-09, No Iterations 3
diagonal:  Solving for rho, Initial residual = 0, Final residual = 0, No Iterations 0
time step continuity errors : sum local = 4.90766e-11, global = -1.67602e-11, cumulative = 0.000237292
smoothSolver:  Solving for epsilon, Initial residual = 0.00470238, Final residual = 1.56895e-09, No Iterations 4
smoothSolver:  Solving for k, Initial residual = 0.0147174, Final residual = 5.13665e-09, No Iterations 5
ExecutionTime = 0.55 s  ClockTime = 1 s

Time = 2.2e-05

Courant Number mean: 0.034745 max: 0.201299
diagonal:  Solving for rho, Initial residual = 0, Final residual = 0, No Iterations 0
PIMPLE: iteration 1
smoothSolver:  Solving for Ux, Initial residual = 0.0052644, Final residual = 4.66048e-07, No Iterations 2
smoothSolver:  Solving for Uy, Initial residual = 0.0177011, Final residual = 3.61099e-06, No Iterations 2
smoothSolver:  Solving for e, Initial residual = 0.00922622, Final residual = 2.3801e-06, No Iterations 2
smoothSolver:  Solving for p, Initial residual = 0.00845871, Final residual = 2.82555e-09, No Iterations 4
diagonal:  Solving for rho, Initial residual = 0, Final residual = 0, No Iterations 0
time step continuity errors : sum local = 9.62406e-11, global = 5.37286e-11, cumulative = 0.000237292
PIMPLE: iteration 2
smoothSolver:  Solving for Ux, Initial residual = 7.31715e-05, Final residual = 5.45524e-07, No Iterations 1
smoothSolver:  Solving for Uy, Initial residual = 0.000246918, Final residual = 2.56189e-06, No Iterations 1
smoothSolver:  Solving for e, Initial residual = 0.000633062, Final residual = 5.03515e-06, No Iterations 1
smoothSolver:  Solving for p, Initial residual = 0.000198279, Final residual = 1.45802e-09, No Iterations 3
diagonal:  Solving for rho, Initial residual = 0, Final residual = 0, No Iterations 0
time step continuity errors : sum local = 5.05147e-11, global = -1.48787e-11, cumulative = 0.000237292
smoothSolver:  Solving for epsilon, Initial residual = 0.00483463, Final residual = 1.62588e-09, No Iterations 4
smoothSolver:  Solving for k, Initial residual = 0.0142291, Final residual = 4.69036e-09, No Iterations 5
ExecutionTime = 0.56 s  ClockTime = 1 s

Time = 2.25e-05

Courant Number mean: 0.0347459 max: 0.204168
diagonal:  Solving for rho, Initial residual = 0, Final residual = 0, No Iterations 0
PIMPLE: iteration 1
smoothSolver:  Solving for Ux, Initial residual = 0.00512179, Final residual = 4.54767e-07, No Iterations 2
smoothSolver:  Solving for Uy, Initial residual = 0.0172137, Final residual = 3.48561e-06, No Iterations 2
smoothSolver:  Solving for e, Initial residual = 0.00896253, Final residual = 2.2328e-06, No Iterations 2
smoothSolver:  Solving for p, Initial residual = 0.00831962, Final residual = 2.90983e-09, No Iterations 4
diagonal:  Solving for rho, Initial residual = 0, Final residual = 0, No Iterations 0
time step continuity errors : sum local = 1.01558e-10, global = 5.19378e-11, cumulative = 0.000237292
PIMPLE: iteration 2
smoothSolver:  Solving for Ux, Initial residual = 7.10466e-05, Final residual = 5.2533e-07, No Iterations 1
smoothSolver:  Solving for Uy, Initial residual = 0.000232292, Final residual = 2.45568e-06, No Iterations 1
smoothSolver:  Solving for e, Initial residual = 0.000711152, Final residual = 5.65674e-06, No Iterations 1
smoothSolver:  Solving for p, Initial residual = 0.000219272, Final residual = 1.82146e-09, No Iterations 3
diagonal:  Solving for rho, Initial residual = 0, Final residual = 0, No Iterations 0
time step continuity errors : sum local = 6.46386e-11, global = -6.97965e-12, cumulative = 0.000237292
smoothSolver:  Solving for epsilon, Initial residual = 0.00497083, Final residual = 1.70782e-09, No Iterations 4
smoothSolver:  Solving for k, Initial residual = 0.0137356, Final residual = 4.67269e-09, No Iterations 5
ExecutionTime = 0.57 s  ClockTime = 1 s

Time = 2.3e-05

Courant Number mean: 0.0347473 max: 0.206625
diagonal:  Solving for rho, Initial residual = 0, Final residual = 0, No Iterations 0
PIMPLE: iteration 1
smoothSolver:  Solving for Ux, Initial residual = 0.00498592, Final residual = 4.42648e-07, No Iterations 2
smoothSolver:  Solving for Uy, Initial residual = 0.0167347, Final residual = 3.36448e-06, No Iterations 2
smoothSolver:  Solving for e, Initial residual = 0.00881367, Final residual = 2.22631e-06, No Iterations 2
smoothSolver:  Solving for p, Initial residual = 0.00819991, Final residual = 3.32258e-09, No Iterations 4
diagonal:  Solving for rho, Initial residual = 0, Final residual = 0, No Iterations 0
time step continuity errors : sum local = 1.18749e-10, global = 6.19563e-11, cumulative = 0.000237292
PIMPLE: iteration 2
smoothSolver:  Solving for Ux, Initial residual = 7.11335e-05, Final residual = 5.38285e-07, No Iterations 1
smoothSolver:  Solving for Uy, Initial residual = 0.000232943, Final residual = 2.46503e-06, No Iterations 1
smoothSolver:  Solving for e, Initial residual = 0.000753152, Final residual = 5.48473e-06, No Iterations 1
smoothSolver:  Solving for p, Initial residual = 0.00023591, Final residual = 1.37423e-09, No Iterations 3
diagonal:  Solving for rho, Initial residual = 0, Final residual = 0, No Iterations 0
time step continuity errors : sum local = 4.9919e-11, global = -7.55997e-12, cumulative = 0.000237292
smoothSolver:  Solving for epsilon, Initial residual = 0.00509757, Final residual = 1.74556e-09, No Iterations 4
smoothSolver:  Solving for k, Initial residual = 0.0132518, Final residual = 4.15246e-09, No Iterations 5
ExecutionTime = 0.57 s  ClockTime = 1 s

Time = 2.35e-05

Courant Number mean: 0.0347495 max: 0.20878
diagonal:  Solving for rho, Initial residual = 0, Final residual = 0, No Iterations 0
PIMPLE: iteration 1
smoothSolver:  Solving for Ux, Initial residual = 0.00485279, Final residual = 4.29486e-07, No Iterations 2
smoothSolver:  Solving for Uy, Initial residual = 0.016272, Final residual = 3.24779e-06, No Iterations 2
[...]
smoothSolver:  Solving for p, Initial residual = 4.59027e-05, Final residual = 1.53671e-09, No Iterations 2
diagonal:  Solving for rho, Initial residual = 0, Final residual = 0, No Iterations 0
time step continuity errors : sum local = 6.42418e-10, global = -1.96945e-10, cumulative = 0.000237204
PIMPLE: iteration 2
smoothSolver:  Solving for Ux, Initial residual = 1.94367e-06, Final residual = 1.94367e-06, No Iterations 0
smoothSolver:  Solving for Uy, Initial residual = 2.40472e-06, Final residual = 2.40472e-06, No Iterations 0
smoothSolver:  Solving for e, Initial residual = 3.06614e-06, Final residual = 3.06614e-06, No Iterations 0
smoothSolver:  Solving for p, Initial residual = 3.07473e-07, Final residual = 5.76245e-10, No Iterations 1
diagonal:  Solving for rho, Initial residual = 0, Final residual = 0, No Iterations 0
time step continuity errors : sum local = 2.40907e-10, global = -2.01534e-11, cumulative = 0.000237204
smoothSolver:  Solving for epsilon, Initial residual = 5.15562e-05, Final residual = 2.72861e-09, No Iterations 2
smoothSolver:  Solving for k, Initial residual = 0.000141532, Final residual = 8.95085e-09, No Iterations 2
ExecutionTime = 23.61 s  ClockTime = 54 s

Time = 0.000995

Courant Number mean: 0.0356794 max: 0.262826
diagonal:  Solving for rho, Initial residual = 0, Final residual = 0, No Iterations 0
PIMPLE: iteration 1
smoothSolver:  Solving for Ux, Initial residual = 0.000133217, Final residual = 6.77739e-07, No Iterations 1
smoothSolver:  Solving for Uy, Initial residual = 0.000146655, Final residual = 4.88248e-07, No Iterations 1
smoothSolver:  Solving for e, Initial residual = 0.000210436, Final residual = 6.69463e-07, No Iterations 1
smoothSolver:  Solving for p, Initial residual = 4.59221e-05, Final residual = 1.54726e-09, No Iterations 2
diagonal:  Solving for rho, Initial residual = 0, Final residual = 0, No Iterations 0
time step continuity errors : sum local = 6.46848e-10, global = -2.03451e-10, cumulative = 0.000237203
PIMPLE: iteration 2
smoothSolver:  Solving for Ux, Initial residual = 1.96594e-06, Final residual = 1.96594e-06, No Iterations 0
smoothSolver:  Solving for Uy, Initial residual = 2.42043e-06, Final residual = 2.42043e-06, No Iterations 0
smoothSolver:  Solving for e, Initial residual = 2.95636e-06, Final residual = 2.95636e-06, No Iterations 0
smoothSolver:  Solving for p, Initial residual = 3.0008e-07, Final residual = 5.54394e-10, No Iterations 1
diagonal:  Solving for rho, Initial residual = 0, Final residual = 0, No Iterations 0
time step continuity errors : sum local = 2.31778e-10, global = -1.1965e-11, cumulative = 0.000237203
smoothSolver:  Solving for epsilon, Initial residual = 5.11337e-05, Final residual = 2.64045e-09, No Iterations 2
smoothSolver:  Solving for k, Initial residual = 0.000141115, Final residual = 8.68343e-09, No Iterations 2
ExecutionTime = 23.62 s  ClockTime = 54 s

Time = 0.0009955

Courant Number mean: 0.0356785 max: 0.262795
diagonal:  Solving for rho, Initial residual = 0, Final residual = 0, No Iterations 0
PIMPLE: iteration 1
smoothSolver:  Solving for Ux, Initial residual = 0.000133123, Final residual = 6.78902e-07, No Iterations 1
smoothSolver:  Solving for Uy, Initial residual = 0.000146576, Final residual = 4.87169e-07, No Iterations 1
smoothSolver:  Solving for e, Initial residual = 0.000210361, Final residual = 6.61181e-07, No Iterations 1
smoothSolver:  Solving for p, Initial residual = 4.61066e-05, Final residual = 1.55779e-09, No Iterations 2
diagonal:  Solving for rho, Initial residual = 0, Final residual = 0, No Iterations 0
time step continuity errors : sum local = 6.51269e-10, global = -2.09779e-10, cumulative = 0.000237203
PIMPLE: iteration 2
smoothSolver:  Solving for Ux, Initial residual = 1.96919e-06, Final residual = 1.96919e-06, No Iterations 0
smoothSolver:  Solving for Uy, Initial residual = 2.41579e-06, Final residual = 2.41579e-06, No Iterations 0
smoothSolver:  Solving for e, Initial residual = 2.86237e-06, Final residual = 2.86237e-06, No Iterations 0
smoothSolver:  Solving for p, Initial residual = 3.00453e-07, Final residual = 6.06484e-10, No Iterations 1
diagonal:  Solving for rho, Initial residual = 0, Final residual = 0, No Iterations 0
time step continuity errors : sum local = 2.53563e-10, global = 1.49018e-11, cumulative = 0.000237203
smoothSolver:  Solving for epsilon, Initial residual = 5.22673e-05, Final residual = 6.71983e-09, No Iterations 2
smoothSolver:  Solving for k, Initial residual = 0.000142647, Final residual = 1.63147e-09, No Iterations 3
ExecutionTime = 23.63 s  ClockTime = 54 s

Time = 0.000996

Courant Number mean: 0.0356776 max: 0.262765
diagonal:  Solving for rho, Initial residual = 0, Final residual = 0, No Iterations 0
PIMPLE: iteration 1
smoothSolver:  Solving for Ux, Initial residual = 0.000133209, Final residual = 6.86432e-07, No Iterations 1
smoothSolver:  Solving for Uy, Initial residual = 0.000159491, Final residual = 1.00915e-06, No Iterations 1
smoothSolver:  Solving for e, Initial residual = 0.000211585, Final residual = 7.61409e-07, No Iterations 1
smoothSolver:  Solving for p, Initial residual = 4.75527e-05, Final residual = 1.57828e-09, No Iterations 2
diagonal:  Solving for rho, Initial residual = 0, Final residual = 0, No Iterations 0
time step continuity errors : sum local = 6.59855e-10, global = -2.08154e-10, cumulative = 0.000237203
PIMPLE: iteration 2
smoothSolver:  Solving for Ux, Initial residual = 2.08295e-06, Final residual = 2.08295e-06, No Iterations 0
smoothSolver:  Solving for Uy, Initial residual = 6.47478e-06, Final residual = 6.47478e-06, No Iterations 0
smoothSolver:  Solving for e, Initial residual = 4.84681e-06, Final residual = 4.84681e-06, No Iterations 0
smoothSolver:  Solving for p, Initial residual = 6.31618e-07, Final residual = 1.81375e-09, No Iterations 1
diagonal:  Solving for rho, Initial residual = 0, Final residual = 0, No Iterations 0
time step continuity errors : sum local = 7.58362e-10, global = -2.65412e-10, cumulative = 0.000237203
smoothSolver:  Solving for epsilon, Initial residual = 5.12572e-05, Final residual = 4.34735e-09, No Iterations 2
smoothSolver:  Solving for k, Initial residual = 0.000141232, Final residual = 9.74002e-10, No Iterations 3
ExecutionTime = 23.64 s  ClockTime = 54 s

Time = 0.0009965

Courant Number mean: 0.0356764 max: 0.262867
diagonal:  Solving for rho, Initial residual = 0, Final residual = 0, No Iterations 0
PIMPLE: iteration 1
smoothSolver:  Solving for Ux, Initial residual = 0.000132898, Final residual = 6.77557e-07, No Iterations 1
smoothSolver:  Solving for Uy, Initial residual = 0.000152068, Final residual = 7.31089e-07, No Iterations 1
smoothSolver:  Solving for e, Initial residual = 0.000211864, Final residual = 8.04521e-07, No Iterations 1
smoothSolver:  Solving for p, Initial residual = 4.72856e-05, Final residual = 1.62597e-09, No Iterations 2
diagonal:  Solving for rho, Initial residual = 0, Final residual = 0, No Iterations 0
time step continuity errors : sum local = 6.79841e-10, global = -2.09335e-10, cumulative = 0.000237202
PIMPLE: iteration 2
smoothSolver:  Solving for Ux, Initial residual = 2.03469e-06, Final residual = 2.03469e-06, No Iterations 0
smoothSolver:  Solving for Uy, Initial residual = 4.52446e-06, Final residual = 4.52446e-06, No Iterations 0
smoothSolver:  Solving for e, Initial residual = 3.63978e-06, Final residual = 3.63978e-06, No Iterations 0
smoothSolver:  Solving for p, Initial residual = 5.19553e-07, Final residual = 1.85049e-09, No Iterations 1
diagonal:  Solving for rho, Initial residual = 0, Final residual = 0, No Iterations 0
time step continuity errors : sum local = 7.7378e-10, global = -2.82406e-10, cumulative = 0.000237202
smoothSolver:  Solving for epsilon, Initial residual = 5.25286e-05, Final residual = 3.09314e-09, No Iterations 2
smoothSolver:  Solving for k, Initial residual = 0.000143059, Final residual = 6.76166e-10, No Iterations 3
ExecutionTime = 23.65 s  ClockTime = 54 s

Time = 0.000997

Courant Number mean: 0.0356754 max: 0.262937
diagonal:  Solving for rho, Initial residual = 0, Final residual = 0, No Iterations 0
PIMPLE: iteration 1
smoothSolver:  Solving for Ux, Initial residual = 0.000133023, Final residual = 6.83264e-07, No Iterations 1
smoothSolver:  Solving for Uy, Initial residual = 0.000162567, Final residual = 6.43249e-07, No Iterations 1
smoothSolver:  Solving for e, Initial residual = 0.000212506, Final residual = 7.4789e-07, No Iterations 1
smoothSolver:  Solving for p, Initial residual = 4.81381e-05, Final residual = 1.60944e-09, No Iterations 2
diagonal:  Solving for rho, Initial residual = 0, Final residual = 0, No Iterations 0
time step continuity errors : sum local = 6.72983e-10, global = -2.21128e-10, cumulative = 0.000237202
PIMPLE: iteration 2
smoothSolver:  Solving for Ux, Initial residual = 2.11132e-06, Final residual = 2.11132e-06, No Iterations 0
smoothSolver:  Solving for Uy, Initial residual = 7.22866e-06, Final residual = 7.22866e-06, No Iterations 0
smoothSolver:  Solving for e, Initial residual = 5.87436e-06, Final residual = 5.87436e-06, No Iterations 0
smoothSolver:  Solving for p, Initial residual = 7.61897e-07, Final residual = 2.23623e-09, No Iterations 1
diagonal:  Solving for rho, Initial residual = 0, Final residual = 0, No Iterations 0
time step continuity errors : sum local = 9.35171e-10, global = -1.68567e-10, cumulative = 0.000237202
smoothSolver:  Solving for epsilon, Initial residual = 5.1347e-05, Final residual = 4.37724e-09, No Iterations 2
smoothSolver:  Solving for k, Initial residual = 0.000141263, Final residual = 1.05677e-09, No Iterations 3
ExecutionTime = 23.66 s  ClockTime = 54 s

Time = 0.0009975

Courant Number mean: 0.0356741 max: 0.26291
diagonal:  Solving for rho, Initial residual = 0, Final residual = 0, No Iterations 0
PIMPLE: iteration 1
smoothSolver:  Solving for Ux, Initial residual = 0.000132671, Final residual = 6.77934e-07, No Iterations 1
smoothSolver:  Solving for Uy, Initial residual = 0.00015319, Final residual = 5.91215e-07, No Iterations 1
smoothSolver:  Solving for e, Initial residual = 0.00021264, Final residual = 8.06161e-07, No Iterations 1
smoothSolver:  Solving for p, Initial residual = 4.75146e-05, Final residual = 1.63395e-09, No Iterations 2
diagonal:  Solving for rho, Initial residual = 0, Final residual = 0, No Iterations 0
time step continuity errors : sum local = 6.83294e-10, global = -2.03628e-10, cumulative = 0.000237202
PIMPLE: iteration 2
smoothSolver:  Solving for Ux, Initial residual = 2.04203e-06, Final residual = 2.04203e-06, No Iterations 0
smoothSolver:  Solving for Uy, Initial residual = 4.90677e-06, Final residual = 4.90677e-06, No Iterations 0
smoothSolver:  Solving for e, Initial residual = 4.16065e-06, Final residual = 4.16065e-06, No Iterations 0
smoothSolver:  Solving for p, Initial residual = 6.6835e-07, Final residual = 2.18087e-09, No Iterations 1
diagonal:  Solving for rho, Initial residual = 0, Final residual = 0, No Iterations 0
time step continuity errors : sum local = 9.12091e-10, global = -3.63621e-10, cumulative = 0.000237201
smoothSolver:  Solving for epsilon, Initial residual = 5.13108e-05, Final residual = 3.84966e-09, No Iterations 2
smoothSolver:  Solving for k, Initial residual = 0.000140934, Final residual = 8.48404e-10, No Iterations 3
ExecutionTime = 23.67 s  ClockTime = 54 s

Time = 0.000998

Courant Number mean: 0.0356731 max: 0.26289
diagonal:  Solving for rho, Initial residual = 0, Final residual = 0, No Iterations 0
PIMPLE: iteration 1
smoothSolver:  Solving for Ux, Initial residual = 0.000132638, Final residual = 6.78248e-07, No Iterations 1
smoothSolver:  Solving for Uy, Initial residual = 0.000149428, Final residual = 5.34446e-07, No Iterations 1
smoothSolver:  Solving for e, Initial residual = 0.000211758, Final residual = 7.40138e-07, No Iterations 1
smoothSolver:  Solving for p, Initial residual = 4.66052e-05, Final residual = 1.61479e-09, No Iterations 2
diagonal:  Solving for rho, Initial residual = 0, Final residual = 0, No Iterations 0
time step continuity errors : sum local = 6.75338e-10, global = -2.17361e-10, cumulative = 0.000237201
PIMPLE: iteration 2
smoothSolver:  Solving for Ux, Initial residual = 1.97851e-06, Final residual = 1.97851e-06, No Iterations 0
smoothSolver:  Solving for Uy, Initial residual = 2.96511e-06, Final residual = 2.96511e-06, No Iterations 0
smoothSolver:  Solving for e, Initial residual = 4.16179e-06, Final residual = 4.16179e-06, No Iterations 0
smoothSolver:  Solving for p, Initial residual = 4.86696e-07, Final residual = 1.12437e-09, No Iterations 1
diagonal:  Solving for rho, Initial residual = 0, Final residual = 0, No Iterations 0
time step continuity errors : sum local = 4.70261e-10, global = -5.78521e-11, cumulative = 0.000237201
smoothSolver:  Solving for epsilon, Initial residual = 5.06724e-05, Final residual = 2.75077e-09, No Iterations 2
smoothSolver:  Solving for k, Initial residual = 0.000140018, Final residual = 8.61214e-09, No Iterations 2
ExecutionTime = 23.68 s  ClockTime = 54 s

Time = 0.0009985

Courant Number mean: 0.0356722 max: 0.262855
diagonal:  Solving for rho, Initial residual = 0, Final residual = 0, No Iterations 0
PIMPLE: iteration 1
smoothSolver:  Solving for Ux, Initial residual = 0.000132478, Final residual = 6.77717e-07, No Iterations 1
smoothSolver:  Solving for Uy, Initial residual = 0.000147367, Final residual = 4.75259e-07, No Iterations 1
smoothSolver:  Solving for e, Initial residual = 0.000211127, Final residual = 6.79052e-07, No Iterations 1
smoothSolver:  Solving for p, Initial residual = 4.62176e-05, Final residual = 1.59085e-09, No Iterations 2
diagonal:  Solving for rho, Initial residual = 0, Final residual = 0, No Iterations 0
time step continuity errors : sum local = 6.65363e-10, global = -2.25485e-10, cumulative = 0.000237201
PIMPLE: iteration 2
smoothSolver:  Solving for Ux, Initial residual = 1.94224e-06, Final residual = 1.94224e-06, No Iterations 0
smoothSolver:  Solving for Uy, Initial residual = 2.63217e-06, Final residual = 2.63217e-06, No Iterations 0
smoothSolver:  Solving for e, Initial residual = 3.38118e-06, Final residual = 3.38118e-06, No Iterations 0
smoothSolver:  Solving for p, Initial residual = 4.76878e-07, Final residual = 9.95911e-10, No Iterations 1
diagonal:  Solving for rho, Initial residual = 0, Final residual = 0, No Iterations 0
time step continuity errors : sum local = 4.16551e-10, global = 2.57768e-13, cumulative = 0.000237201
smoothSolver:  Solving for epsilon, Initial residual = 5.05304e-05, Final residual = 2.72192e-09, No Iterations 2
smoothSolver:  Solving for k, Initial residual = 0.000139454, Final residual = 8.92334e-09, No Iterations 2
ExecutionTime = 23.69 s  ClockTime = 54 s

Time = 0.000999

Courant Number mean: 0.0356713 max: 0.262819
diagonal:  Solving for rho, Initial residual = 0, Final residual = 0, No Iterations 0
PIMPLE: iteration 1
smoothSolver:  Solving for Ux, Initial residual = 0.000132374, Final residual = 6.7648e-07, No Iterations 1
smoothSolver:  Solving for Uy, Initial residual = 0.000146688, Final residual = 4.86765e-07, No Iterations 1
smoothSolver:  Solving for e, Initial residual = 0.000210623, Final residual = 6.87039e-07, No Iterations 1
smoothSolver:  Solving for p, Initial residual = 4.58491e-05, Final residual = 1.57838e-09, No Iterations 2
diagonal:  Solving for rho, Initial residual = 0, Final residual = 0, No Iterations 0
time step continuity errors : sum local = 6.60173e-10, global = -2.27077e-10, cumulative = 0.000237201
PIMPLE: iteration 2
smoothSolver:  Solving for Ux, Initial residual = 1.92201e-06, Final residual = 1.92201e-06, No Iterations 0
smoothSolver:  Solving for Uy, Initial residual = 2.46993e-06, Final residual = 2.46993e-06, No Iterations 0
smoothSolver:  Solving for e, Initial residual = 3.26931e-06, Final residual = 3.26931e-06, No Iterations 0
smoothSolver:  Solving for p, Initial residual = 4.07764e-07, Final residual = 8.26365e-10, No Iterations 1
diagonal:  Solving for rho, Initial residual = 0, Final residual = 0, No Iterations 0
time step continuity errors : sum local = 3.45649e-10, global = 1.96286e-11, cumulative = 0.000237201
smoothSolver:  Solving for epsilon, Initial residual = 5.00512e-05, Final residual = 2.69937e-09, No Iterations 2
smoothSolver:  Solving for k, Initial residual = 0.000138893, Final residual = 8.90929e-09, No Iterations 2
ExecutionTime = 23.7 s  ClockTime = 54 s

Time = 0.0009995

Courant Number mean: 0.0356703 max: 0.262788
diagonal:  Solving for rho, Initial residual = 0, Final residual = 0, No Iterations 0
PIMPLE: iteration 1
smoothSolver:  Solving for Ux, Initial residual = 0.000132197, Final residual = 6.74886e-07, No Iterations 1
smoothSolver:  Solving for Uy, Initial residual = 0.000146393, Final residual = 4.9043e-07, No Iterations 1
smoothSolver:  Solving for e, Initial residual = 0.000210257, Final residual = 6.86697e-07, No Iterations 1
smoothSolver:  Solving for p, Initial residual = 4.57456e-05, Final residual = 1.56763e-09, No Iterations 2
diagonal:  Solving for rho, Initial residual = 0, Final residual = 0, No Iterations 0
time step continuity errors : sum local = 6.557e-10, global = -2.27502e-10, cumulative = 0.0002372
PIMPLE: iteration 2
smoothSolver:  Solving for Ux, Initial residual = 1.91813e-06, Final residual = 1.91813e-06, No Iterations 0
smoothSolver:  Solving for Uy, Initial residual = 2.38791e-06, Final residual = 2.38791e-06, No Iterations 0
smoothSolver:  Solving for e, Initial residual = 3.19282e-06, Final residual = 3.19282e-06, No Iterations 0
smoothSolver:  Solving for p, Initial residual = 3.59178e-07, Final residual = 6.17411e-10, No Iterations 1
diagonal:  Solving for rho, Initial residual = 0, Final residual = 0, No Iterations 0
time step continuity errors : sum local = 2.58257e-10, global = -3.82728e-11, cumulative = 0.0002372
smoothSolver:  Solving for epsilon, Initial residual = 5.0089e-05, Final residual = 2.72372e-09, No Iterations 2
smoothSolver:  Solving for k, Initial residual = 0.000138632, Final residual = 8.98329e-09, No Iterations 2
ExecutionTime = 23.71 s  ClockTime = 54 s

Time = 0.001

Courant Number mean: 0.0356694 max: 0.262757
diagonal:  Solving for rho, Initial residual = 0, Final residual = 0, No Iterations 0
PIMPLE: iteration 1
smoothSolver:  Solving for Ux, Initial residual = 0.000132083, Final residual = 6.73678e-07, No Iterations 1
smoothSolver:  Solving for Uy, Initial residual = 0.000146371, Final residual = 4.95654e-07, No Iterations 1
smoothSolver:  Solving for e, Initial residual = 0.000210049, Final residual = 6.73487e-07, No Iterations 1
smoothSolver:  Solving for p, Initial residual = 4.55548e-05, Final residual = 1.56287e-09, No Iterations 2
diagonal:  Solving for rho, Initial residual = 0, Final residual = 0, No Iterations 0
time step continuity errors : sum local = 6.53727e-10, global = -2.29711e-10, cumulative = 0.0002372
PIMPLE: iteration 2
smoothSolver:  Solving for Ux, Initial residual = 1.93051e-06, Final residual = 1.93051e-06, No Iterations 0
smoothSolver:  Solving for Uy, Initial residual = 2.40635e-06, Final residual = 2.40635e-06, No Iterations 0
smoothSolver:  Solving for e, Initial residual = 3.12697e-06, Final residual = 3.12697e-06, No Iterations 0
smoothSolver:  Solving for p, Initial residual = 3.45947e-07, Final residual = 6.15199e-10, No Iterations 1
diagonal:  Solving for rho, Initial residual = 0, Final residual = 0, No Iterations 0
time step continuity errors : sum local = 2.57339e-10, global = -2.63858e-11, cumulative = 0.0002372
smoothSolver:  Solving for epsilon, Initial residual = 4.9684e-05, Final residual = 2.69397e-09, No Iterations 2
smoothSolver:  Solving for k, Initial residual = 0.000138195, Final residual = 8.90812e-09, No Iterations 2
ExecutionTime = 23.74 s  ClockTime = 54 s

End

Finalising parallel run
