/*---------------------------------------------------------------------------*\
| =========                 |                                                 |
| \\      /  F ield         | OpenFOAM: The Open Source CFD Toolbox           |
|  \\    /   O peration     | Version:  2406                                  |
|   \\  /    A nd           | Website:  www.openfoam.com                      |
|    \\/     M anipulation  |                                                 |
\*---------------------------------------------------------------------------*/
Build  : _9bfe8264-20241212 OPENFOAM=2406 patch=241212 version=2406
Arch   : "LSB;label=32;scalar=64"
Exec   : sonicFoam -parallel
Date   : Aug 24 2025
Time   : 15:44:26
Host   : Indigo
PID    : 2441
I/O    : uncollated
Case   : /mnt/e/Repository/Projects/bulletSim/openfoam/case-08-24-25
nProcs : 8
Hosts  :
(
    (Indigo 8)
)
Pstream initialized with:
    floatTransfer      : false
    maxCommsSize       : 0
    nProcsSimpleSum    : 0
    nonBlockingExchange: 0 (tuning: 0)
    exchange algorithm : 0
    commsType          : nonBlocking
    polling iterations : 0
trapFpe: Floating point exception trapping enabled (FOAM_SIGFPE).
fileModificationChecking : Monitoring run-time modified files using timeStampMaster (fileModificationSkew 5, maxFileModificationPolls 20)
allowSystemOperations : Allowing user-supplied system call operations

// * * * * * * * * * * * * * * * * * * * * * * * * * * * * * * * * * * * * * //
Create time

Create mesh for time = 0


PIMPLE: Operating solver in PISO mode

Reading thermophysical properties

Selecting thermodynamics package 
{
    type            hePsiThermo;
    mixture         pureMixture;
    transport       const;
    thermo          hConst;
    equationOfState perfectGas;
    specie          specie;
    energy          sensibleInternalEnergy;
}

Reading field U

Reading/calculating face flux field phi

Creating turbulence model

Selecting turbulence model type RAS
Selecting RAS turbulence model LaunderSharmaKE
RAS
{
    RASModel        LaunderSharmaKE;
    turbulence      on;
    printCoeffs     on;
    Cmu             0.09;
    C1              1.44;
    C2              1.92;
    C3              0;
    sigmak          1;
    sigmaEps        1.3;
}

Creating field kinetic energy K

No MRF models present

No finite volume options present

Starting time loop

Time = 1e-09

Courant Number mean: 0.000292586403788758 max: 0.0360790475087325
diagonal:  Solving for rho, Initial residual = 0, Final residual = 0, No Iterations 0
PIMPLE: iteration 1
DILUPBiCGStab:  Solving for Ux, Initial residual = 0.999999845471583, Final residual = 5.95938833486056e-10, No Iterations 7
DILUPBiCGStab:  Solving for Uy, Initial residual = 1, Final residual = 4.53680333120351e-10, No Iterations 8
DILUPBiCGStab:  Solving for Uz, Initial residual = 1, Final residual = 3.27365087078703e-10, No Iterations 8
DILUPBiCGStab:  Solving for e, Initial residual = 0.999998723223866, Final residual = 4.17762867894894e-10, No Iterations 7
DILUPBiCGStab:  Solving for p, Initial residual = 0.999999998013249, Final residual = 5.03832680217542e-13, No Iterations 2
DILUPBiCGStab:  Solving for p, Initial residual = 0.000136960796239624, Final residual = 8.50473542626978e-15, No Iterations 2
DILUPBiCGStab:  Solving for p, Initial residual = 9.32040890276948e-08, Final residual = 1.39685221067441e-14, No Iterations 1
DILUPBiCGStab:  Solving for p, Initial residual = 2.93817295033931e-10, Final residual = 3.38566675420527e-14, No Iterations 1
DILUPBiCGStab:  Solving for p, Initial residual = 5.4603541359909e-11, Final residual = 3.8482528137609e-16, No Iterations 1
DILUPBiCGStab:  Solving for p, Initial residual = 5.31421549763163e-11, Final residual = 3.03099315428975e-16, No Iterations 1
DILUPBiCGStab:  Solving for p, Initial residual = 5.28397230843648e-11, Final residual = 2.96298240222471e-16, No Iterations 1
DILUPBiCGStab:  Solving for p, Initial residual = 5.314456336866e-11, Final residual = 2.84663081631259e-16, No Iterations 1
DILUPBiCGStab:  Solving for p, Initial residual = 5.31318109198071e-11, Final residual = 3.00530519503433e-16, No Iterations 1
DILUPBiCGStab:  Solving for p, Initial residual = 5.34255535958981e-11, Final residual = 3.09762712228947e-16, No Iterations 1
DILUPBiCGStab:  Solving for p, Initial residual = 5.32528870980145e-11, Final residual = 3.06828835709402e-16, No Iterations 1
diagonal:  Solving for rho, Initial residual = 0, Final residual = 0, No Iterations 0
time step continuity errors : sum local = 2.57500453024429e-07, global = -2.28933061779654e-07, cumulative = -2.28933061779654e-07
DILUPBiCGStab:  Solving for p, Initial residual = 2.45137227480742e-07, Final residual = 1.06123375119449e-14, No Iterations 1
DILUPBiCGStab:  Solving for p, Initial residual = 1.30828172923247e-10, Final residual = 4.72204125997378e-15, No Iterations 1
DILUPBiCGStab:  Solving for p, Initial residual = 5.20818942191441e-11, Final residual = 3.36000228544323e-16, No Iterations 1
DILUPBiCGStab:  Solving for p, Initial residual = 5.1348594890209e-11, Final residual = 2.96804582735051e-16, No Iterations 1
DILUPBiCGStab:  Solving for p, Initial residual = 5.09209864146949e-11, Final residual = 2.84001361093298e-16, No Iterations 1
DILUPBiCGStab:  Solving for p, Initial residual = 5.04593491818524e-11, Final residual = 3.03862942922252e-16, No Iterations 1
DILUPBiCGStab:  Solving for p, Initial residual = 5.01909281289795e-11, Final residual = 3.03280275515564e-16, No Iterations 1
DILUPBiCGStab:  Solving for p, Initial residual = 5.01223858999354e-11, Final residual = 2.90319965611541e-16, No Iterations 1
DILUPBiCGStab:  Solving for p, Initial residual = 5.05360860017828e-11, Final residual = 2.97224816109665e-16, No Iterations 1
DILUPBiCGStab:  Solving for p, Initial residual = 5.05625293811701e-11, Final residual = 2.79484683077265e-16, No Iterations 1
DILUPBiCGStab:  Solving for p, Initial residual = 4.99737803901567e-11, Final residual = 2.83599234947828e-16, No Iterations 1
diagonal:  Solving for rho, Initial residual = 0, Final residual = 0, No Iterations 0
time step continuity errors : sum local = 2.57500453027353e-07, global = -2.28933061785286e-07, cumulative = -4.5786612356494e-07
DILUPBiCGStab:  Solving for p, Initial residual = 1.09247096327341e-07, Final residual = 5.32454990298823e-15, No Iterations 1
DILUPBiCGStab:  Solving for p, Initial residual = 8.19727119358763e-11, Final residual = 1.01400965308518e-14, No Iterations 1
DILUPBiCGStab:  Solving for p, Initial residual = 5.03335766701802e-11, Final residual = 2.94141985091903e-16, No Iterations 1
DILUPBiCGStab:  Solving for p, Initial residual = 5.0542570686096e-11, Final residual = 3.00901006924118e-16, No Iterations 1
DILUPBiCGStab:  Solving for p, Initial residual = 5.06118816582812e-11, Final residual = 2.91497402033229e-16, No Iterations 1
DILUPBiCGStab:  Solving for p, Initial residual = 5.06053872565219e-11, Final residual = 2.90923687171657e-16, No Iterations 1
DILUPBiCGStab:  Solving for p, Initial residual = 5.01318856851198e-11, Final residual = 2.9738681472408e-16, No Iterations 1
DILUPBiCGStab:  Solving for p, Initial residual = 4.99618333421265e-11, Final residual = 2.9656829761243e-16, No Iterations 1
DILUPBiCGStab:  Solving for p, Initial residual = 5.05959809299925e-11, Final residual = 2.91367002761448e-16, No Iterations 1
DILUPBiCGStab:  Solving for p, Initial residual = 5.04558680746472e-11, Final residual = 3.05250862396877e-16, No Iterations 1
DILUPBiCGStab:  Solving for p, Initial residual = 5.02512962105067e-11, Final residual = 3.02317837150714e-16, No Iterations 1
diagonal:  Solving for rho, Initial residual = 0, Final residual = 0, No Iterations 0
time step continuity errors : sum local = 2.57500453027361e-07, global = -2.28933061784923e-07, cumulative = -6.86799185349863e-07
DILUPBiCGStab:  Solving for p, Initial residual = 6.77534185284426e-08, Final residual = 3.94273581976802e-15, No Iterations 1
DILUPBiCGStab:  Solving for p, Initial residual = 8.27882857697955e-11, Final residual = 2.05273818167345e-15, No Iterations 1
DILUPBiCGStab:  Solving for p, Initial residual = 5.05183119282077e-11, Final residual = 3.16462519953975e-16, No Iterations 1
DILUPBiCGStab:  Solving for p, Initial residual = 5.0569697108576e-11, Final residual = 3.16701426564061e-16, No Iterations 1
DILUPBiCGStab:  Solving for p, Initial residual = 5.07862863697464e-11, Final residual = 2.92766741165596e-16, No Iterations 1
DILUPBiCGStab:  Solving for p, Initial residual = 5.05270146167929e-11, Final residual = 3.0429109340685e-16, No Iterations 1
DILUPBiCGStab:  Solving for p, Initial residual = 5.02468925443897e-11, Final residual = 2.97519395846554e-16, No Iterations 1
DILUPBiCGStab:  Solving for p, Initial residual = 4.98119046065907e-11, Final residual = 2.8664506962211e-16, No Iterations 1
DILUPBiCGStab:  Solving for p, Initial residual = 5.01411909028579e-11, Final residual = 3.14373444045467e-16, No Iterations 1
DILUPBiCGStab:  Solving for p, Initial residual = 5.03382214850007e-11, Final residual = 3.04242471170655e-16, No Iterations 1
DILUPBiCGStab:  Solving for p, Initial residual = 5.01449708802259e-11, Final residual = 3.03082639676579e-16, No Iterations 1
diagonal:  Solving for rho, Initial residual = 0, Final residual = 0, No Iterations 0
time step continuity errors : sum local = 2.57500453028337e-07, global = -2.28933061785295e-07, cumulative = -9.15732247135158e-07
DILUPBiCGStab:  Solving for p, Initial residual = 4.0780466511896e-08, Final residual = 2.07982412641202e-15, No Iterations 1
DILUPBiCGStab:  Solving for p, Initial residual = 6.55346870201028e-11, Final residual = 5.28522597954394e-15, No Iterations 1
DILUPBiCGStab:  Solving for p, Initial residual = 5.04569479097959e-11, Final residual = 2.86992758371607e-16, No Iterations 1
DILUPBiCGStab:  Solving for p, Initial residual = 5.04229382507413e-11, Final residual = 3.01461960024155e-16, No Iterations 1
DILUPBiCGStab:  Solving for p, Initial residual = 5.03730899792642e-11, Final residual = 3.03313541017865e-16, No Iterations 1
DILUPBiCGStab:  Solving for p, Initial residual = 5.04261497971982e-11, Final residual = 2.91980864402973e-16, No Iterations 1
DILUPBiCGStab:  Solving for p, Initial residual = 5.06243590324546e-11, Final residual = 3.00089090727049e-16, No Iterations 1
DILUPBiCGStab:  Solving for p, Initial residual = 5.01253188915678e-11, Final residual = 3.02701255283451e-16, No Iterations 1
DILUPBiCGStab:  Solving for p, Initial residual = 5.01909827391685e-11, Final residual = 2.95289770740955e-16, No Iterations 1
DILUPBiCGStab:  Solving for p, Initial residual = 5.05763494485073e-11, Final residual = 3.06825305737848e-16, No Iterations 1
DILUPBiCGStab:  Solving for p, Initial residual = 5.06798066815766e-11, Final residual = 3.16540816120628e-16, No Iterations 1
diagonal:  Solving for rho, Initial residual = 0, Final residual = 0, No Iterations 0
time step continuity errors : sum local = 2.57500453027809e-07, global = -2.28933061784783e-07, cumulative = -1.14466530891994e-06
DILUPBiCGStab:  Solving for p, Initial residual = 2.65917599464404e-08, Final residual = 1.6059583245458e-15, No Iterations 1
DILUPBiCGStab:  Solving for p, Initial residual = 6.48537906188504e-11, Final residual = 1.03684584378571e-15, No Iterations 1
DILUPBiCGStab:  Solving for p, Initial residual = 5.06272860687906e-11, Final residual = 3.00543979056992e-16, No Iterations 1
DILUPBiCGStab:  Solving for p, Initial residual = 5.04177368534654e-11, Final residual = 2.85597989957637e-16, No Iterations 1
DILUPBiCGStab:  Solving for p, Initial residual = 5.00374755169379e-11, Final residual = 3.10719476539397e-16, No Iterations 1
DILUPBiCGStab:  Solving for p, Initial residual = 5.01550248522701e-11, Final residual = 3.04125851784692e-16, No Iterations 1
DILUPBiCGStab:  Solving for p, Initial residual = 5.01492604382085e-11, Final residual = 3.17205895163248e-16, No Iterations 1
DILUPBiCGStab:  Solving for p, Initial residual = 5.03183478522612e-11, Final residual = 2.93730301392399e-16, No Iterations 1
DILUPBiCGStab:  Solving for p, Initial residual = 5.03731662247051e-11, Final residual = 3.21648061984771e-16, No Iterations 1
DILUPBiCGStab:  Solving for p, Initial residual = 5.02700799753151e-11, Final residual = 2.89743937107788e-16, No Iterations 1
DILUPBiCGStab:  Solving for p, Initial residual = 5.00577153577395e-11, Final residual = 3.0432908932744e-16, No Iterations 1
diagonal:  Solving for rho, Initial residual = 0, Final residual = 0, No Iterations 0
time step continuity errors : sum local = 2.57500453027601e-07, global = -2.28933061785368e-07, cumulative = -1.37359837070531e-06
DILUPBiCGStab:  Solving for p, Initial residual = 1.65639562825212e-08, Final residual = 8.40144790999208e-16, No Iterations 1
DILUPBiCGStab:  Solving for p, Initial residual = 5.77267485554243e-11, Final residual = 1.72294844283485e-15, No Iterations 1
DILUPBiCGStab:  Solving for p, Initial residual = 5.03302857159167e-11, Final residual = 3.05093378069382e-16, No Iterations 1
DILUPBiCGStab:  Solving for p, Initial residual = 5.03593008336412e-11, Final residual = 3.11405610093126e-16, No Iterations 1
DILUPBiCGStab:  Solving for p, Initial residual = 5.05231663075817e-11, Final residual = 3.04641444389659e-16, No Iterations 1
DILUPBiCGStab:  Solving for p, Initial residual = 5.05119378583532e-11, Final residual = 2.97871669375695e-16, No Iterations 1
DILUPBiCGStab:  Solving for p, Initial residual = 5.02396552046938e-11, Final residual = 2.94473128564123e-16, No Iterations 1
DILUPBiCGStab:  Solving for p, Initial residual = 4.99946103160199e-11, Final residual = 3.01411239635838e-16, No Iterations 1
DILUPBiCGStab:  Solving for p, Initial residual = 5.05624957170572e-11, Final residual = 3.29063929688057e-16, No Iterations 1
DILUPBiCGStab:  Solving for p, Initial residual = 5.00809541945986e-11, Final residual = 3.01804333776321e-16, No Iterations 1
DILUPBiCGStab:  Solving for p, Initial residual = 5.01992738136736e-11, Final residual = 3.13706046808977e-16, No Iterations 1
diagonal:  Solving for rho, Initial residual = 0, Final residual = 0, No Iterations 0
time step continuity errors : sum local = 2.57500453027932e-07, global = -2.28933061784689e-07, cumulative = -1.60253143249e-06
DILUPBiCGStab:  Solving for p, Initial residual = 1.09049818448934e-08, Final residual = 6.58161803684661e-16, No Iterations 1
DILUPBiCGStab:  Solving for p, Initial residual = 5.64794496594459e-11, Final residual = 5.72226010099392e-16, No Iterations 1
DILUPBiCGStab:  Solving for p, Initial residual = 5.03160262634978e-11, Final residual = 3.04659590775136e-16, No Iterations 1
DILUPBiCGStab:  Solving for p, Initial residual = 5.06249515696798e-11, Final residual = 3.15918395490002e-16, No Iterations 1
DILUPBiCGStab:  Solving for p, Initial residual = 5.04216106518344e-11, Final residual = 2.93568504549261e-16, No Iterations 1
DILUPBiCGStab:  Solving for p, Initial residual = 5.07156550184792e-11, Final residual = 3.056847300212e-16, No Iterations 1
DILUPBiCGStab:  Solving for p, Initial residual = 4.99799073752833e-11, Final residual = 3.12265158048164e-16, No Iterations 1
DILUPBiCGStab:  Solving for p, Initial residual = 5.00711771811165e-11, Final residual = 2.86746524259021e-16, No Iterations 1
DILUPBiCGStab:  Solving for p, Initial residual = 5.0334580022026e-11, Final residual = 3.00932017354369e-16, No Iterations 1
DILUPBiCGStab:  Solving for p, Initial residual = 5.04041371729411e-11, Final residual = 3.14926978156569e-16, No Iterations 1
DILUPBiCGStab:  Solving for p, Initial residual = 5.018133520656e-11, Final residual = 3.17639312988457e-16, No Iterations 1
diagonal:  Solving for rho, Initial residual = 0, Final residual = 0, No Iterations 0
time step continuity errors : sum local = 2.57500453027953e-07, global = -2.28933061785276e-07, cumulative = -1.83146449427527e-06
DILUPBiCGStab:  Solving for p, Initial residual = 6.90026038804214e-09, Final residual = 5.93426544393186e-13, No Iterations 1
DILUPBiCGStab:  Solving for p, Initial residual = 5.42687272867654e-11, Final residual = 2.01915102638573e-15, No Iterations 1
DILUPBiCGStab:  Solving for p, Initial residual = 5.01817806824811e-11, Final residual = 3.14451918977495e-16, No Iterations 1
DILUPBiCGStab:  Solving for p, Initial residual = 5.01220025928635e-11, Final residual = 3.02436546314098e-16, No Iterations 1
DILUPBiCGStab:  Solving for p, Initial residual = 5.0166468543907e-11, Final residual = 2.95144907386684e-16, No Iterations 1
DILUPBiCGStab:  Solving for p, Initial residual = 5.01990088128573e-11, Final residual = 3.11621422244767e-16, No Iterations 1
DILUPBiCGStab:  Solving for p, Initial residual = 5.02389937684216e-11, Final residual = 3.12032406752519e-16, No Iterations 1
DILUPBiCGStab:  Solving for p, Initial residual = 5.03135003081549e-11, Final residual = 3.18403048867162e-16, No Iterations 1
DILUPBiCGStab:  Solving for p, Initial residual = 5.02434908342606e-11, Final residual = 2.85968619861324e-16, No Iterations 1
DILUPBiCGStab:  Solving for p, Initial residual = 5.02306508887897e-11, Final residual = 3.16227902293512e-16, No Iterations 1
DILUPBiCGStab:  Solving for p, Initial residual = 5.01680385021162e-11, Final residual = 3.03472809541649e-16, No Iterations 1
diagonal:  Solving for rho, Initial residual = 0, Final residual = 0, No Iterations 0
time step continuity errors : sum local = 2.57500453027607e-07, global = -2.28933061785005e-07, cumulative = -2.06039755606028e-06
DILUPBiCGStab:  Solving for p, Initial residual = 4.55636112795779e-09, Final residual = 4.19811274032689e-13, No Iterations 1
DILUPBiCGStab:  Solving for p, Initial residual = 5.31593839898315e-11, Final residual = 1.04596051737442e-15, No Iterations 1
DILUPBiCGStab:  Solving for p, Initial residual = 5.03281494095849e-11, Final residual = 3.10644412219309e-16, No Iterations 1
DILUPBiCGStab:  Solving for p, Initial residual = 5.0447108013763e-11, Final residual = 2.88707964268195e-16, No Iterations 1
DILUPBiCGStab:  Solving for p, Initial residual = 5.01296987520634e-11, Final residual = 2.98678017703934e-16, No Iterations 1
DILUPBiCGStab:  Solving for p, Initial residual = 5.01287812619663e-11, Final residual = 3.03166061001416e-16, No Iterations 1
DILUPBiCGStab:  Solving for p, Initial residual = 5.0096475718569e-11, Final residual = 2.98262192995059e-16, No Iterations 1
DILUPBiCGStab:  Solving for p, Initial residual = 5.01319891314492e-11, Final residual = 2.98711214897579e-16, No Iterations 1
DILUPBiCGStab:  Solving for p, Initial residual = 5.0478991669737e-11, Final residual = 2.89727359537569e-16, No Iterations 1
DILUPBiCGStab:  Solving for p, Initial residual = 5.02176197787934e-11, Final residual = 2.99427808330441e-16, No Iterations 1
DILUPBiCGStab:  Solving for p, Initial residual = 5.00303307647896e-11, Final residual = 3.06498542035504e-16, No Iterations 1
diagonal:  Solving for rho, Initial residual = 0, Final residual = 0, No Iterations 0
time step continuity errors : sum local = 2.57500453027804e-07, global = -2.28933061785247e-07, cumulative = -2.28933061784553e-06
DILUPBiCGStab:  Solving for p, Initial residual = 2.91618663799292e-09, Final residual = 2.33660195625134e-13, No Iterations 1
DILUPBiCGStab:  Solving for p, Initial residual = 5.13554956680896e-11, Final residual = 6.85101561534165e-16, No Iterations 1
DILUPBiCGStab:  Solving for p, Initial residual = 5.03731730560212e-11, Final residual = 2.97095060295193e-16, No Iterations 1
DILUPBiCGStab:  Solving for p, Initial residual = 5.00958194286271e-11, Final residual = 3.07813905630816e-16, No Iterations 1
DILUPBiCGStab:  Solving for p, Initial residual = 5.00710378257294e-11, Final residual = 2.98948731619935e-16, No Iterations 1
DILUPBiCGStab:  Solving for p, Initial residual = 5.03759130749356e-11, Final residual = 2.95134571849447e-16, No Iterations 1
DILUPBiCGStab:  Solving for p, Initial residual = 4.99403914060546e-11, Final residual = 3.00349483519792e-16, No Iterations 1
DILUPBiCGStab:  Solving for p, Initial residual = 4.99321936721756e-11, Final residual = 2.99063698737247e-16, No Iterations 1
DILUPBiCGStab:  Solving for p, Initial residual = 5.04599015633847e-11, Final residual = 2.97956636825666e-16, No Iterations 1
DILUPBiCGStab:  Solving for p, Initial residual = 5.03203636980505e-11, Final residual = 3.0781458534595e-16, No Iterations 1
DILUPBiCGStab:  Solving for p, Initial residual = 5.06780270792054e-11, Final residual = 2.99296357511406e-16, No Iterations 1
diagonal:  Solving for rho, Initial residual = 0, Final residual = 0, No Iterations 0
time step continuity errors : sum local = 2.5750045302777e-07, global = -2.28933061784177e-07, cumulative = -2.5182636796297e-06
DILUPBiCGStab:  Solving for p, Initial residual = 1.9348325754925e-09, Final residual = 1.67894874914157e-13, No Iterations 1
DILUPBiCGStab:  Solving for p, Initial residual = 5.16210967880913e-11, Final residual = 4.749928991915e-16, No Iterations 1
DILUPBiCGStab:  Solving for p, Initial residual = 5.03413307295953e-11, Final residual = 2.95261226317077e-16, No Iterations 1
DILUPBiCGStab:  Solving for p, Initial residual = 5.05724769779876e-11, Final residual = 3.01861393654561e-16, No Iterations 1
DILUPBiCGStab:  Solving for p, Initial residual = 5.07847261218808e-11, Final residual = 2.97110687698841e-16, No Iterations 1
DILUPBiCGStab:  Solving for p, Initial residual = 5.0178226407001e-11, Final residual = 2.94152046535528e-16, No Iterations 1
DILUPBiCGStab:  Solving for p, Initial residual = 5.019864329026e-11, Final residual = 3.0058358627882e-16, No Iterations 1
DILUPBiCGStab:  Solving for p, Initial residual = 5.04389081049922e-11, Final residual = 2.96291847522672e-16, No Iterations 1
DILUPBiCGStab:  Solving for p, Initial residual = 5.03172125704824e-11, Final residual = 3.13873274430172e-16, No Iterations 1
DILUPBiCGStab:  Solving for p, Initial residual = 5.02661297751487e-11, Final residual = 2.92747161129863e-16, No Iterations 1
DILUPBiCGStab:  Solving for p, Initial residual = 5.05485238550525e-11, Final residual = 3.04004275743202e-16, No Iterations 1
diagonal:  Solving for rho, Initial residual = 0, Final residual = 0, No Iterations 0
time step continuity errors : sum local = 2.5750045302796e-07, global = -2.28933061785071e-07, cumulative = -2.74719674141477e-06
DILUPBiCGStab:  Solving for p, Initial residual = 1.25576929387718e-09, Final residual = 9.31205632361703e-14, No Iterations 1
DILUPBiCGStab:  Solving for p, Initial residual = 5.15263722013912e-11, Final residual = 4.11237180149481e-16, No Iterations 1
DILUPBiCGStab:  Solving for p, Initial residual = 5.03704793993871e-11, Final residual = 3.16299667480301e-16, No Iterations 1
DILUPBiCGStab:  Solving for p, Initial residual = 5.03727702708613e-11, Final residual = 3.05428025058104e-16, No Iterations 1
DILUPBiCGStab:  Solving for p, Initial residual = 5.02479249075683e-11, Final residual = 2.93384947714586e-16, No Iterations 1
DILUPBiCGStab:  Solving for p, Initial residual = 5.01334804450636e-11, Final residual = 2.97149793159235e-16, No Iterations 1
DILUPBiCGStab:  Solving for p, Initial residual = 5.01476803048868e-11, Final residual = 2.93206488204543e-16, No Iterations 1
DILUPBiCGStab:  Solving for p, Initial residual = 5.00484644771708e-11, Final residual = 2.98928920026797e-16, No Iterations 1
DILUPBiCGStab:  Solving for p, Initial residual = 5.03416008609684e-11, Final residual = 3.00730246308092e-16, No Iterations 1
DILUPBiCGStab:  Solving for p, Initial residual = 5.01024024111504e-11, Final residual = 3.041637280334e-16, No Iterations 1
DILUPBiCGStab:  Solving for p, Initial residual = 5.03361524723549e-11, Final residual = 2.99559259989909e-16, No Iterations 1
diagonal:  Solving for rho, Initial residual = 0, Final residual = 0, No Iterations 0
time step continuity errors : sum local = 2.57500453028212e-07, global = -2.28933061784547e-07, cumulative = -2.97612980319932e-06
DILUPBiCGStab:  Solving for p, Initial residual = 8.42304518359697e-10, Final residual = 6.73536884477005e-14, No Iterations 1
DILUPBiCGStab:  Solving for p, Initial residual = 5.0749245609122e-11, Final residual = 3.43807140233936e-16, No Iterations 1
DILUPBiCGStab:  Solving for p, Initial residual = 5.01569628121791e-11, Final residual = 2.95171429053501e-16, No Iterations 1
DILUPBiCGStab:  Solving for p, Initial residual = 5.04284665359612e-11, Final residual = 3.05670473009237e-16, No Iterations 1
DILUPBiCGStab:  Solving for p, Initial residual = 5.0222491384185e-11, Final residual = 2.92700857197406e-16, No Iterations 1
DILUPBiCGStab:  Solving for p, Initial residual = 5.0252579864447e-11, Final residual = 2.98450405267179e-16, No Iterations 1
DILUPBiCGStab:  Solving for p, Initial residual = 5.02183642180278e-11, Final residual = 3.00968108421341e-16, No Iterations 1
DILUPBiCGStab:  Solving for p, Initial residual = 5.022555703998e-11, Final residual = 2.97503224792571e-16, No Iterations 1
DILUPBiCGStab:  Solving for p, Initial residual = 5.01471561304515e-11, Final residual = 2.94286048482248e-16, No Iterations 1
DILUPBiCGStab:  Solving for p, Initial residual = 5.03008667432231e-11, Final residual = 2.90517588790815e-16, No Iterations 1
DILUPBiCGStab:  Solving for p, Initial residual = 4.99908935724703e-11, Final residual = 3.0075040924725e-16, No Iterations 1
diagonal:  Solving for rho, Initial residual = 0, Final residual = 0, No Iterations 0
time step continuity errors : sum local = 2.57500453027698e-07, global = -2.2893306178508e-07, cumulative = -3.2050628649844e-06
DILUPBiCGStab:  Solving for p, Initial residual = 5.58649996704189e-10, Final residual = 3.77857104208412e-14, No Iterations 1
DILUPBiCGStab:  Solving for p, Initial residual = 5.05038379722074e-11, Final residual = 3.36124800455194e-16, No Iterations 1
DILUPBiCGStab:  Solving for p, Initial residual = 5.01495549628647e-11, Final residual = 2.95764324674257e-16, No Iterations 1
DILUPBiCGStab:  Solving for p, Initial residual = 5.03016430346526e-11, Final residual = 3.20221068934516e-16, No Iterations 1
DILUPBiCGStab:  Solving for p, Initial residual = 5.02434059226575e-11, Final residual = 3.08227969375562e-16, No Iterations 1
DILUPBiCGStab:  Solving for p, Initial residual = 5.06238910004813e-11, Final residual = 3.08457902749299e-16, No Iterations 1
DILUPBiCGStab:  Solving for p, Initial residual = 5.0411426797533e-11, Final residual = 2.96083006159637e-16, No Iterations 1
DILUPBiCGStab:  Solving for p, Initial residual = 5.02194913625672e-11, Final residual = 2.84457358662743e-16, No Iterations 1
DILUPBiCGStab:  Solving for p, Initial residual = 5.0011302797949e-11, Final residual = 3.01887775573258e-16, No Iterations 1
DILUPBiCGStab:  Solving for p, Initial residual = 5.00854262023199e-11, Final residual = 3.10260230860561e-16, No Iterations 1
DILUPBiCGStab:  Solving for p, Initial residual = 5.04480026878617e-11, Final residual = 2.96202917040707e-16, No Iterations 1
diagonal:  Solving for rho, Initial residual = 0, Final residual = 0, No Iterations 0
time step continuity errors : sum local = 2.57500453027906e-07, global = -2.28933061785241e-07, cumulative = -3.43399592676964e-06
DILUPBiCGStab:  Solving for epsilon, Initial residual = 0.00102202324943095, Final residual = 6.24262039567616e-11, No Iterations 4
DILUPBiCGStab:  Solving for k, Initial residual = 0.99999999922504, Final residual = 8.21867424746241e-11, No Iterations 8
ExecutionTime = 5.99 s  ClockTime = 6 s

Time = 2e-09

Courant Number mean: 0.000292586189828816 max: 0.0361651846512308
diagonal:  Solving for rho, Initial residual = 0, Final residual = 0, No Iterations 0
PIMPLE: iteration 1
DILUPBiCGStab:  Solving for Ux, Initial residual = 0.000250569781220125, Final residual = 1.73370892037574e-11, No Iterations 1
DILUPBiCGStab:  Solving for Uy, Initial residual = 0.271358065352256, Final residual = 2.65937009538669e-10, No Iterations 2
DILUPBiCGStab:  Solving for Uz, Initial residual = 0.15823954357282, Final residual = 2.33774523717014e-10, No Iterations 2
DILUPBiCGStab:  Solving for e, Initial residual = 0.0245205184230489, Final residual = 2.06068189499018e-11, No Iterations 2
DILUPBiCGStab:  Solving for p, Initial residual = 0.116687340043462, Final residual = 7.49977400885423e-15, No Iterations 2
DILUPBiCGStab:  Solving for p, Initial residual = 2.39846993955059e-06, Final residual = 1.46159310347458e-15, No Iterations 1
DILUPBiCGStab:  Solving for p, Initial residual = 4.71746747784971e-10, Final residual = 5.3921767750525e-15, No Iterations 1
DILUPBiCGStab:  Solving for p, Initial residual = 7.34892326746681e-12, Final residual = 5.75000435620109e-17, No Iterations 1
DILUPBiCGStab:  Solving for p, Initial residual = 6.54647252204382e-12, Final residual = 3.76235350582273e-17, No Iterations 1
DILUPBiCGStab:  Solving for p, Initial residual = 6.53601467912824e-12, Final residual = 3.83848327004798e-17, No Iterations 1
DILUPBiCGStab:  Solving for p, Initial residual = 6.50670035840818e-12, Final residual = 3.77026294975279e-17, No Iterations 1
DILUPBiCGStab:  Solving for p, Initial residual = 6.46752577357466e-12, Final residual = 3.65166890009154e-17, No Iterations 1
DILUPBiCGStab:  Solving for p, Initial residual = 6.49830920045042e-12, Final residual = 3.65186916860375e-17, No Iterations 1
DILUPBiCGStab:  Solving for p, Initial residual = 6.50198034953607e-12, Final residual = 3.803102899463e-17, No Iterations 1
DILUPBiCGStab:  Solving for p, Initial residual = 6.48668781032566e-12, Final residual = 3.8559446900412e-17, No Iterations 1
diagonal:  Solving for rho, Initial residual = 0, Final residual = 0, No Iterations 0
time step continuity errors : sum local = 1.4582375015911e-16, global = -1.96467192820534e-17, cumulative = -3.43399592678929e-06
DILUPBiCGStab:  Solving for p, Initial residual = 1.61574861316772e-08, Final residual = 7.86099901986813e-13, No Iterations 1
DILUPBiCGStab:  Solving for p, Initial residual = 1.43843946466555e-11, Final residual = 1.43580836273033e-15, No Iterations 1
DILUPBiCGStab:  Solving for p, Initial residual = 6.50002402172278e-12, Final residual = 6.5113175741116e-17, No Iterations 1
DILUPBiCGStab:  Solving for p, Initial residual = 6.41675806346866e-12, Final residual = 3.73222124630256e-17, No Iterations 1
DILUPBiCGStab:  Solving for p, Initial residual = 6.47226440033122e-12, Final residual = 3.7541827417996e-17, No Iterations 1
DILUPBiCGStab:  Solving for p, Initial residual = 6.39857261918212e-12, Final residual = 3.87817932140034e-17, No Iterations 1
DILUPBiCGStab:  Solving for p, Initial residual = 6.35573106936417e-12, Final residual = 3.81068761880936e-17, No Iterations 1
DILUPBiCGStab:  Solving for p, Initial residual = 6.41453751321534e-12, Final residual = 3.83998950255921e-17, No Iterations 1
DILUPBiCGStab:  Solving for p, Initial residual = 6.40879529201532e-12, Final residual = 3.766787927989e-17, No Iterations 1
DILUPBiCGStab:  Solving for p, Initial residual = 6.44191795227144e-12, Final residual = 3.81377572381173e-17, No Iterations 1
DILUPBiCGStab:  Solving for p, Initial residual = 6.41285844402223e-12, Final residual = 3.84808856971114e-17, No Iterations 1
diagonal:  Solving for rho, Initial residual = 0, Final residual = 0, No Iterations 0
time step continuity errors : sum local = 1.46373023523142e-16, global = -1.92738111664534e-17, cumulative = -3.43399592680856e-06
DILUPBiCGStab:  Solving for p, Initial residual = 1.46804074662106e-11, Final residual = 1.438024296054e-15, No Iterations 1
DILUPBiCGStab:  Solving for p, Initial residual = 6.44501552541321e-12, Final residual = 3.66715609069424e-17, No Iterations 1
DILUPBiCGStab:  Solving for p, Initial residual = 6.42384678999569e-12, Final residual = 3.69409499077969e-17, No Iterations 1
DILUPBiCGStab:  Solving for p, Initial residual = 6.42295752360068e-12, Final residual = 3.79456284489529e-17, No Iterations 1
DILUPBiCGStab:  Solving for p, Initial residual = 6.40292747870785e-12, Final residual = 3.94668467532938e-17, No Iterations 1
DILUPBiCGStab:  Solving for p, Initial residual = 6.40901513274039e-12, Final residual = 4.02355295620143e-17, No Iterations 1
DILUPBiCGStab:  Solving for p, Initial residual = 6.39804545472812e-12, Final residual = 4.02747137225089e-17, No Iterations 1
DILUPBiCGStab:  Solving for p, Initial residual = 6.40800166023455e-12, Final residual = 3.72132501059163e-17, No Iterations 1
DILUPBiCGStab:  Solving for p, Initial residual = 6.43400022822541e-12, Final residual = 3.58428952276489e-17, No Iterations 1
DILUPBiCGStab:  Solving for p, Initial residual = 6.41095432736748e-12, Final residual = 3.70459899824231e-17, No Iterations 1
DILUPBiCGStab:  Solving for p, Initial residual = 6.37856483679806e-12, Final residual = 3.72201805435803e-17, No Iterations 1
diagonal:  Solving for rho, Initial residual = 0, Final residual = 0, No Iterations 0
time step continuity errors : sum local = 1.44953454184555e-16, global = -2.00006094859335e-17, cumulative = -3.43399592682856e-06
DILUPBiCGStab:  Solving for p, Initial residual = 6.43815396844403e-12, Final residual = 3.9616393997726e-17, No Iterations 1
DILUPBiCGStab:  Solving for p, Initial residual = 6.43649876179058e-12, Final residual = 3.8634330163069e-17, No Iterations 1
DILUPBiCGStab:  Solving for p, Initial residual = 6.37445458533029e-12, Final residual = 3.88611764075592e-17, No Iterations 1
DILUPBiCGStab:  Solving for p, Initial residual = 6.4119031141528e-12, Final residual = 3.63312547758709e-17, No Iterations 1
DILUPBiCGStab:  Solving for p, Initial residual = 6.38762134604771e-12, Final residual = 3.73396378475641e-17, No Iterations 1
DILUPBiCGStab:  Solving for p, Initial residual = 6.42236916517799e-12, Final residual = 3.84819677808764e-17, No Iterations 1
DILUPBiCGStab:  Solving for p, Initial residual = 6.4603616591832e-12, Final residual = 3.77929980903184e-17, No Iterations 1
DILUPBiCGStab:  Solving for p, Initial residual = 6.42218399114135e-12, Final residual = 3.80731509127323e-17, No Iterations 1
DILUPBiCGStab:  Solving for p, Initial residual = 6.42043100697078e-12, Final residual = 3.88040895017703e-17, No Iterations 1
DILUPBiCGStab:  Solving for p, Initial residual = 6.44965935333178e-12, Final residual = 3.88651971153975e-17, No Iterations 1
DILUPBiCGStab:  Solving for p, Initial residual = 6.45387064786589e-12, Final residual = 4.01821800160175e-17, No Iterations 1
diagonal:  Solving for rho, Initial residual = 0, Final residual = 0, No Iterations 0
time step continuity errors : sum local = 1.45585254577849e-16, global = -1.85557987875778e-17, cumulative = -3.43399592684712e-06
DILUPBiCGStab:  Solving for p, Initial residual = 6.41313606954785e-12, Final residual = 3.86954664189928e-17, No Iterations 1
DILUPBiCGStab:  Solving for p, Initial residual = 6.37089172055841e-12, Final residual = 4.02899459032173e-17, No Iterations 1
DILUPBiCGStab:  Solving for p, Initial residual = 6.38363489731384e-12, Final residual = 3.91432942529809e-17, No Iterations 1
DILUPBiCGStab:  Solving for p, Initial residual = 6.4414322284875e-12, Final residual = 4.08800663740082e-17, No Iterations 1
DILUPBiCGStab:  Solving for p, Initial residual = 6.38456576864332e-12, Final residual = 4.12169841185914e-17, No Iterations 1
DILUPBiCGStab:  Solving for p, Initial residual = 6.38273159825647e-12, Final residual = 3.83654610026764e-17, No Iterations 1
DILUPBiCGStab:  Solving for p, Initial residual = 6.39532042218654e-12, Final residual = 3.94585062010617e-17, No Iterations 1
DILUPBiCGStab:  Solving for p, Initial residual = 6.3611945876117e-12, Final residual = 3.90882367891014e-17, No Iterations 1
DILUPBiCGStab:  Solving for p, Initial residual = 6.38814678708482e-12, Final residual = 3.92735330113728e-17, No Iterations 1
DILUPBiCGStab:  Solving for p, Initial residual = 6.43355782432055e-12, Final residual = 3.8822018050781e-17, No Iterations 1
DILUPBiCGStab:  Solving for p, Initial residual = 6.40447827836318e-12, Final residual = 3.91014164339318e-17, No Iterations 1
diagonal:  Solving for rho, Initial residual = 0, Final residual = 0, No Iterations 0
time step continuity errors : sum local = 1.45262183297806e-16, global = -1.95949339317831e-17, cumulative = -3.43399592686671e-06
DILUPBiCGStab:  Solving for p, Initial residual = 6.40157234891737e-12, Final residual = 3.74744943747372e-17, No Iterations 1
DILUPBiCGStab:  Solving for p, Initial residual = 6.37457185712255e-12, Final residual = 3.64473114790677e-17, No Iterations 1
DILUPBiCGStab:  Solving for p, Initial residual = 6.36857924971678e-12, Final residual = 3.7262135346081e-17, No Iterations 1
DILUPBiCGStab:  Solving for p, Initial residual = 6.39507794043968e-12, Final residual = 3.86834110012235e-17, No Iterations 1
DILUPBiCGStab:  Solving for p, Initial residual = 6.41867947050069e-12, Final residual = 3.77193824015328e-17, No Iterations 1
DILUPBiCGStab:  Solving for p, Initial residual = 6.37166962918522e-12, Final residual = 3.56550122434453e-17, No Iterations 1
DILUPBiCGStab:  Solving for p, Initial residual = 6.41891503421802e-12, Final residual = 3.73698518400312e-17, No Iterations 1
DILUPBiCGStab:  Solving for p, Initial residual = 6.41313309995436e-12, Final residual = 3.98509085349485e-17, No Iterations 1
DILUPBiCGStab:  Solving for p, Initial residual = 6.40415898640351e-12, Final residual = 4.06815676283535e-17, No Iterations 1
DILUPBiCGStab:  Solving for p, Initial residual = 6.44871767343836e-12, Final residual = 3.84381332208049e-17, No Iterations 1
DILUPBiCGStab:  Solving for p, Initial residual = 6.41517442342581e-12, Final residual = 3.62158215275499e-17, No Iterations 1
diagonal:  Solving for rho, Initial residual = 0, Final residual = 0, No Iterations 0
time step continuity errors : sum local = 1.45970415916715e-16, global = -1.98677490878947e-17, cumulative = -3.43399592688658e-06
DILUPBiCGStab:  Solving for p, Initial residual = 6.39514530785935e-12, Final residual = 3.57438324484127e-17, No Iterations 1
DILUPBiCGStab:  Solving for p, Initial residual = 6.38240616163537e-12, Final residual = 3.5873117137068e-17, No Iterations 1
DILUPBiCGStab:  Solving for p, Initial residual = 6.41365284083327e-12, Final residual = 3.76479368341026e-17, No Iterations 1
DILUPBiCGStab:  Solving for p, Initial residual = 6.40111397901824e-12, Final residual = 3.63538208682552e-17, No Iterations 1
DILUPBiCGStab:  Solving for p, Initial residual = 6.38187091555585e-12, Final residual = 3.94201223510644e-17, No Iterations 1
DILUPBiCGStab:  Solving for p, Initial residual = 6.39011857964808e-12, Final residual = 3.73186770164971e-17, No Iterations 1
DILUPBiCGStab:  Solving for p, Initial residual = 6.38794258746696e-12, Final residual = 3.96645445096693e-17, No Iterations 1
DILUPBiCGStab:  Solving for p, Initial residual = 6.42084850384932e-12, Final residual = 3.93544791438326e-17, No Iterations 1
DILUPBiCGStab:  Solving for p, Initial residual = 6.43117968842494e-12, Final residual = 3.90164846927279e-17, No Iterations 1
DILUPBiCGStab:  Solving for p, Initial residual = 6.40798353124031e-12, Final residual = 3.77777858516243e-17, No Iterations 1
DILUPBiCGStab:  Solving for p, Initial residual = 6.39730169044352e-12, Final residual = 3.69981924958732e-17, No Iterations 1
diagonal:  Solving for rho, Initial residual = 0, Final residual = 0, No Iterations 0
time step continuity errors : sum local = 1.46033326146332e-16, global = -1.95298172151214e-17, cumulative = -3.43399592690611e-06
DILUPBiCGStab:  Solving for p, Initial residual = 6.41130544422108e-12, Final residual = 3.75157825466348e-17, No Iterations 1
DILUPBiCGStab:  Solving for p, Initial residual = 6.39136429290375e-12, Final residual = 3.80222579945464e-17, No Iterations 1
DILUPBiCGStab:  Solving for p, Initial residual = 6.4087290309565e-12, Final residual = 3.92734186443412e-17, No Iterations 1
DILUPBiCGStab:  Solving for p, Initial residual = 6.46747713917675e-12, Final residual = 3.83143181289137e-17, No Iterations 1
DILUPBiCGStab:  Solving for p, Initial residual = 6.42013883455422e-12, Final residual = 3.74059129133307e-17, No Iterations 1
DILUPBiCGStab:  Solving for p, Initial residual = 6.40773526691726e-12, Final residual = 3.93026757101056e-17, No Iterations 1
DILUPBiCGStab:  Solving for p, Initial residual = 6.43570969090272e-12, Final residual = 4.10428757714703e-17, No Iterations 1
DILUPBiCGStab:  Solving for p, Initial residual = 6.39595096972235e-12, Final residual = 3.67938002107656e-17, No Iterations 1
DILUPBiCGStab:  Solving for p, Initial residual = 6.40363097059979e-12, Final residual = 3.80673009723284e-17, No Iterations 1
DILUPBiCGStab:  Solving for p, Initial residual = 6.36912807621257e-12, Final residual = 3.64681576683576e-17, No Iterations 1
DILUPBiCGStab:  Solving for p, Initial residual = 6.40377004854142e-12, Final residual = 3.75467215130649e-17, No Iterations 1
diagonal:  Solving for rho, Initial residual = 0, Final residual = 0, No Iterations 0
time step continuity errors : sum local = 1.45794458572532e-16, global = -1.97618237820744e-17, cumulative = -3.43399592692587e-06
DILUPBiCGStab:  Solving for p, Initial residual = 6.44352982275787e-12, Final residual = 3.68034218333117e-17, No Iterations 1
DILUPBiCGStab:  Solving for p, Initial residual = 6.43401168644381e-12, Final residual = 3.676616678511e-17, No Iterations 1
DILUPBiCGStab:  Solving for p, Initial residual = 6.43635788228648e-12, Final residual = 3.68783906955509e-17, No Iterations 1
DILUPBiCGStab:  Solving for p, Initial residual = 6.43200560147898e-12, Final residual = 3.80806055653903e-17, No Iterations 1
DILUPBiCGStab:  Solving for p, Initial residual = 6.35666747231029e-12, Final residual = 3.83730090882807e-17, No Iterations 1
DILUPBiCGStab:  Solving for p, Initial residual = 6.39187108689685e-12, Final residual = 3.77189488285981e-17, No Iterations 1
DILUPBiCGStab:  Solving for p, Initial residual = 6.42338485842483e-12, Final residual = 3.61925886548402e-17, No Iterations 1
DILUPBiCGStab:  Solving for p, Initial residual = 6.41385257412913e-12, Final residual = 3.85069383996731e-17, No Iterations 1
DILUPBiCGStab:  Solving for p, Initial residual = 6.43881431722077e-12, Final residual = 3.84292749460348e-17, No Iterations 1
DILUPBiCGStab:  Solving for p, Initial residual = 6.42004489870458e-12, Final residual = 3.7675095433343e-17, No Iterations 1
DILUPBiCGStab:  Solving for p, Initial residual = 6.43101843434673e-12, Final residual = 3.84692416849839e-17, No Iterations 1
diagonal:  Solving for rho, Initial residual = 0, Final residual = 0, No Iterations 0
time step continuity errors : sum local = 1.46003704330833e-16, global = -1.98499160632767e-17, cumulative = -3.43399592694572e-06
DILUPBiCGStab:  Solving for p, Initial residual = 6.38745290265922e-12, Final residual = 3.73643801286092e-17, No Iterations 1
DILUPBiCGStab:  Solving for p, Initial residual = 6.38319737100813e-12, Final residual = 3.66792784053044e-17, No Iterations 1
DILUPBiCGStab:  Solving for p, Initial residual = 6.38897895996038e-12, Final residual = 3.78524657185348e-17, No Iterations 1
DILUPBiCGStab:  Solving for p, Initial residual = 6.34838234896977e-12, Final residual = 3.82164231136269e-17, No Iterations 1
DILUPBiCGStab:  Solving for p, Initial residual = 6.41208679097217e-12, Final residual = 3.74222854662639e-17, No Iterations 1
DILUPBiCGStab:  Solving for p, Initial residual = 6.42177213667768e-12, Final residual = 3.59241734707903e-17, No Iterations 1
DILUPBiCGStab:  Solving for p, Initial residual = 6.45270008341944e-12, Final residual = 3.78431618926875e-17, No Iterations 1
DILUPBiCGStab:  Solving for p, Initial residual = 6.40670848543899e-12, Final residual = 3.75894520916162e-17, No Iterations 1
DILUPBiCGStab:  Solving for p, Initial residual = 6.42473640186448e-12, Final residual = 3.65109025361457e-17, No Iterations 1
DILUPBiCGStab:  Solving for p, Initial residual = 6.40875813302407e-12, Final residual = 3.80725797576686e-17, No Iterations 1
DILUPBiCGStab:  Solving for p, Initial residual = 6.39707538871896e-12, Final residual = 3.67980474711017e-17, No Iterations 1
diagonal:  Solving for rho, Initial residual = 0, Final residual = 0, No Iterations 0
time step continuity errors : sum local = 1.46018685900825e-16, global = -1.95802712256451e-17, cumulative = -3.4339959269653e-06
DILUPBiCGStab:  Solving for p, Initial residual = 6.40304129592356e-12, Final residual = 3.97925356861704e-17, No Iterations 1
DILUPBiCGStab:  Solving for p, Initial residual = 6.41298369069756e-12, Final residual = 3.96806981235372e-17, No Iterations 1
DILUPBiCGStab:  Solving for p, Initial residual = 6.39024232528877e-12, Final residual = 3.83675894499094e-17, No Iterations 1
DILUPBiCGStab:  Solving for p, Initial residual = 6.40075598575187e-12, Final residual = 3.6686606459864e-17, No Iterations 1
DILUPBiCGStab:  Solving for p, Initial residual = 6.34490028413778e-12, Final residual = 3.91445186374594e-17, No Iterations 1
DILUPBiCGStab:  Solving for p, Initial residual = 6.39028916152306e-12, Final residual = 3.83753513365215e-17, No Iterations 1
DILUPBiCGStab:  Solving for p, Initial residual = 6.34750066655063e-12, Final residual = 3.78761923244195e-17, No Iterations 1
DILUPBiCGStab:  Solving for p, Initial residual = 6.36350089766457e-12, Final residual = 3.6863191001953e-17, No Iterations 1
DILUPBiCGStab:  Solving for p, Initial residual = 6.39167130408604e-12, Final residual = 3.62955974285067e-17, No Iterations 1
DILUPBiCGStab:  Solving for p, Initial residual = 6.41580535739973e-12, Final residual = 3.70173938919598e-17, No Iterations 1
DILUPBiCGStab:  Solving for p, Initial residual = 6.39480253189757e-12, Final residual = 3.74587111481588e-17, No Iterations 1
diagonal:  Solving for rho, Initial residual = 0, Final residual = 0, No Iterations 0
time step continuity errors : sum local = 1.46570282126957e-16, global = -1.93313401454353e-17, cumulative = -3.43399592698464e-06
DILUPBiCGStab:  Solving for p, Initial residual = 6.41456658652595e-12, Final residual = 3.72701721921581e-17, No Iterations 1
DILUPBiCGStab:  Solving for p, Initial residual = 6.37497861173141e-12, Final residual = 3.8377646411535e-17, No Iterations 1
DILUPBiCGStab:  Solving for p, Initial residual = 6.39526533537953e-12, Final residual = 4.0281076712627e-17, No Iterations 1
DILUPBiCGStab:  Solving for p, Initial residual = 6.39876242010395e-12, Final residual = 3.93121251958055e-17, No Iterations 1
DILUPBiCGStab:  Solving for p, Initial residual = 6.39942517091019e-12, Final residual = 3.89833539379279e-17, No Iterations 1
DILUPBiCGStab:  Solving for p, Initial residual = 6.38620878516448e-12, Final residual = 3.79745250978893e-17, No Iterations 1
DILUPBiCGStab:  Solving for p, Initial residual = 6.36459001267472e-12, Final residual = 3.6168283885314e-17, No Iterations 1
DILUPBiCGStab:  Solving for p, Initial residual = 6.4253741303244e-12, Final residual = 3.67417776601829e-17, No Iterations 1
DILUPBiCGStab:  Solving for p, Initial residual = 6.43524710128473e-12, Final residual = 3.76839978814524e-17, No Iterations 1
DILUPBiCGStab:  Solving for p, Initial residual = 6.42316393622324e-12, Final residual = 3.80964230653142e-17, No Iterations 1
DILUPBiCGStab:  Solving for p, Initial residual = 6.43317489918633e-12, Final residual = 3.82482506012704e-17, No Iterations 1
diagonal:  Solving for rho, Initial residual = 0, Final residual = 0, No Iterations 0
time step continuity errors : sum local = 1.46423529621245e-16, global = -1.9835148576733e-17, cumulative = -3.43399592700447e-06
DILUPBiCGStab:  Solving for p, Initial residual = 6.40793496731111e-12, Final residual = 3.5346098971725e-17, No Iterations 1
DILUPBiCGStab:  Solving for p, Initial residual = 6.46947170834326e-12, Final residual = 3.69010686131064e-17, No Iterations 1
DILUPBiCGStab:  Solving for p, Initial residual = 6.39240107683687e-12, Final residual = 3.70002707695114e-17, No Iterations 1
DILUPBiCGStab:  Solving for p, Initial residual = 6.38071889154615e-12, Final residual = 3.79244555167534e-17, No Iterations 1
DILUPBiCGStab:  Solving for p, Initial residual = 6.3917891107019e-12, Final residual = 3.84892798980356e-17, No Iterations 1
DILUPBiCGStab:  Solving for p, Initial residual = 6.38362487034297e-12, Final residual = 3.68523431766278e-17, No Iterations 1
DILUPBiCGStab:  Solving for p, Initial residual = 6.36865711280291e-12, Final residual = 3.80542907047726e-17, No Iterations 1
DILUPBiCGStab:  Solving for p, Initial residual = 6.41028451934837e-12, Final residual = 3.95320203331835e-17, No Iterations 1
DILUPBiCGStab:  Solving for p, Initial residual = 6.41442364256695e-12, Final residual = 3.72714886566058e-17, No Iterations 1
DILUPBiCGStab:  Solving for p, Initial residual = 6.42035335742477e-12, Final residual = 3.76063200146621e-17, No Iterations 1
DILUPBiCGStab:  Solving for p, Initial residual = 6.4287628020324e-12, Final residual = 3.80124492103247e-17, No Iterations 1
diagonal:  Solving for rho, Initial residual = 0, Final residual = 0, No Iterations 0
time step continuity errors : sum local = 1.45853176505264e-16, global = -1.93082738585146e-17, cumulative = -3.43399592702378e-06
DILUPBiCGStab:  Solving for p, Initial residual = 6.39639653224652e-12, Final residual = 3.80160774651871e-17, No Iterations 1
DILUPBiCGStab:  Solving for p, Initial residual = 6.34316669586278e-12, Final residual = 3.88628285857257e-17, No Iterations 1
DILUPBiCGStab:  Solving for p, Initial residual = 6.42972647693567e-12, Final residual = 3.81084804031927e-17, No Iterations 1
DILUPBiCGStab:  Solving for p, Initial residual = 6.41087292728862e-12, Final residual = 3.65012238542732e-17, No Iterations 1
DILUPBiCGStab:  Solving for p, Initial residual = 6.41622491083328e-12, Final residual = 3.73598614005879e-17, No Iterations 1
DILUPBiCGStab:  Solving for p, Initial residual = 6.45500378580257e-12, Final residual = 3.85102008856668e-17, No Iterations 1
DILUPBiCGStab:  Solving for p, Initial residual = 6.4313561927098e-12, Final residual = 3.75314500573181e-17, No Iterations 1
DILUPBiCGStab:  Solving for p, Initial residual = 6.40620369880955e-12, Final residual = 3.84404098889197e-17, No Iterations 1
DILUPBiCGStab:  Solving for p, Initial residual = 6.38557722588385e-12, Final residual = 3.65171497556532e-17, No Iterations 1
DILUPBiCGStab:  Solving for p, Initial residual = 6.31215231499214e-12, Final residual = 3.79287084208367e-17, No Iterations 1
DILUPBiCGStab:  Solving for p, Initial residual = 6.38292421643453e-12, Final residual = 3.78592400981567e-17, No Iterations 1
diagonal:  Solving for rho, Initial residual = 0, Final residual = 0, No Iterations 0
time step continuity errors : sum local = 1.45748542382163e-16, global = -1.89767239323942e-17, cumulative = -3.43399592704276e-06
DILUPBiCGStab:  Solving for p, Initial residual = 6.37609255118889e-12, Final residual = 3.74580013334223e-17, No Iterations 1
DILUPBiCGStab:  Solving for p, Initial residual = 6.39363965029705e-12, Final residual = 3.79717954674239e-17, No Iterations 1
DILUPBiCGStab:  Solving for p, Initial residual = 6.45195028962897e-12, Final residual = 3.93510610253753e-17, No Iterations 1
DILUPBiCGStab:  Solving for p, Initial residual = 6.44856658616534e-12, Final residual = 3.84671580896785e-17, No Iterations 1
DILUPBiCGStab:  Solving for p, Initial residual = 6.3813522277113e-12, Final residual = 3.68927941641163e-17, No Iterations 1
DILUPBiCGStab:  Solving for p, Initial residual = 6.34867948946897e-12, Final residual = 3.91966725405317e-17, No Iterations 1
DILUPBiCGStab:  Solving for p, Initial residual = 6.38127192953353e-12, Final residual = 3.86569993266297e-17, No Iterations 1
DILUPBiCGStab:  Solving for p, Initial residual = 6.39975677638516e-12, Final residual = 3.87884892211436e-17, No Iterations 1
DILUPBiCGStab:  Solving for p, Initial residual = 6.46616983285227e-12, Final residual = 3.88891269273658e-17, No Iterations 1
DILUPBiCGStab:  Solving for p, Initial residual = 6.38854968390188e-12, Final residual = 3.70813940145803e-17, No Iterations 1
DILUPBiCGStab:  Solving for p, Initial residual = 6.40376669250877e-12, Final residual = 3.77317209408604e-17, No Iterations 1
diagonal:  Solving for rho, Initial residual = 0, Final residual = 0, No Iterations 0
time step continuity errors : sum local = 1.4585432440833e-16, global = -1.96748563082644e-17, cumulative = -3.43399592706243e-06
DILUPBiCGStab:  Solving for epsilon, Initial residual = 1.51807911856275e-06, Final residual = 7.69247902082183e-11, No Iterations 1
DILUPBiCGStab:  Solving for k, Initial residual = 0.0073777312911879, Final residual = 1.6763282842361e-11, No Iterations 2
ExecutionTime = 11.54 s  ClockTime = 11 s

Time = 3e-09

Courant Number mean: 0.000292585690570321 max: 0.0358582582015324
diagonal:  Solving for rho, Initial residual = 0, Final residual = 0, No Iterations 0
PIMPLE: iteration 1
DILUPBiCGStab:  Solving for Ux, Initial residual = 0.000132528045325247, Final residual = 1.0379605369354e-11, No Iterations 1
DILUPBiCGStab:  Solving for Uy, Initial residual = 0.244542488256248, Final residual = 1.68210692519401e-10, No Iterations 2
DILUPBiCGStab:  Solving for Uz, Initial residual = 0.0886144883661494, Final residual = 1.09318769872271e-10, No Iterations 2
DILUPBiCGStab:  Solving for e, Initial residual = 0.0133754050545528, Final residual = 9.60868695307634e-12, No Iterations 2
DILUPBiCGStab:  Solving for p, Initial residual = 0.019743553488467, Final residual = 1.26628164979133e-15, No Iterations 2
DILUPBiCGStab:  Solving for p, Initial residual = 3.73670246052311e-08, Final residual = 1.03607747455558e-15, No Iterations 1
DILUPBiCGStab:  Solving for p, Initial residual = 6.8425533156364e-11, Final residual = 3.68195009500398e-15, No Iterations 1
DILUPBiCGStab:  Solving for p, Initial residual = 3.26543201292777e-12, Final residual = 2.79184484354238e-17, No Iterations 1
DILUPBiCGStab:  Solving for p, Initial residual = 2.93392879629955e-12, Final residual = 1.64740778153441e-17, No Iterations 1
DILUPBiCGStab:  Solving for p, Initial residual = 2.9409733729494e-12, Final residual = 1.58442774257345e-17, No Iterations 1
DILUPBiCGStab:  Solving for p, Initial residual = 2.94944489823313e-12, Final residual = 1.68376237052905e-17, No Iterations 1
DILUPBiCGStab:  Solving for p, Initial residual = 2.93633521367336e-12, Final residual = 1.62814928518343e-17, No Iterations 1
DILUPBiCGStab:  Solving for p, Initial residual = 2.91716193719279e-12, Final residual = 1.68308519680344e-17, No Iterations 1
DILUPBiCGStab:  Solving for p, Initial residual = 2.92183492637998e-12, Final residual = 1.67101219206096e-17, No Iterations 1
DILUPBiCGStab:  Solving for p, Initial residual = 2.94015390187354e-12, Final residual = 1.5974438572388e-17, No Iterations 1
diagonal:  Solving for rho, Initial residual = 0, Final residual = 0, No Iterations 0
time step continuity errors : sum local = 1.47073484799882e-16, global = -4.11636691897974e-17, cumulative = -3.43399592710359e-06
DILUPBiCGStab:  Solving for p, Initial residual = 1.26840930425706e-08, Final residual = 7.64107621780519e-13, No Iterations 1
DILUPBiCGStab:  Solving for p, Initial residual = 9.52827548163135e-12, Final residual = 1.20591872905203e-15, No Iterations 1
DILUPBiCGStab:  Solving for p, Initial residual = 2.95084083127625e-12, Final residual = 6.4581167162479e-17, No Iterations 1
DILUPBiCGStab:  Solving for p, Initial residual = 2.88857038553031e-12, Final residual = 1.59217304851182e-17, No Iterations 1
DILUPBiCGStab:  Solving for p, Initial residual = 2.89734991556796e-12, Final residual = 1.53467243455693e-17, No Iterations 1
DILUPBiCGStab:  Solving for p, Initial residual = 2.90273048263623e-12, Final residual = 1.54834832173552e-17, No Iterations 1
DILUPBiCGStab:  Solving for p, Initial residual = 2.88537733510479e-12, Final residual = 1.55853377015106e-17, No Iterations 1
DILUPBiCGStab:  Solving for p, Initial residual = 2.88311791454141e-12, Final residual = 1.58370529676258e-17, No Iterations 1
DILUPBiCGStab:  Solving for p, Initial residual = 2.88408314357682e-12, Final residual = 1.54596588120366e-17, No Iterations 1
DILUPBiCGStab:  Solving for p, Initial residual = 2.89996228785854e-12, Final residual = 1.58276602889579e-17, No Iterations 1
DILUPBiCGStab:  Solving for p, Initial residual = 2.89830753470069e-12, Final residual = 1.6157436788664e-17, No Iterations 1
diagonal:  Solving for rho, Initial residual = 0, Final residual = 0, No Iterations 0
time step continuity errors : sum local = 1.47889584334786e-16, global = -4.17984907766475e-17, cumulative = -3.43399592714539e-06
DILUPBiCGStab:  Solving for p, Initial residual = 6.92251919852179e-12, Final residual = 6.16548411159134e-16, No Iterations 1
DILUPBiCGStab:  Solving for p, Initial residual = 2.87557893960683e-12, Final residual = 1.70812607291789e-17, No Iterations 1
DILUPBiCGStab:  Solving for p, Initial residual = 2.89364583953884e-12, Final residual = 1.63978702645516e-17, No Iterations 1
DILUPBiCGStab:  Solving for p, Initial residual = 2.89247436722926e-12, Final residual = 1.64609336204089e-17, No Iterations 1
DILUPBiCGStab:  Solving for p, Initial residual = 2.86096944176018e-12, Final residual = 1.64983519898849e-17, No Iterations 1
DILUPBiCGStab:  Solving for p, Initial residual = 2.87982315755334e-12, Final residual = 1.592685637967e-17, No Iterations 1
DILUPBiCGStab:  Solving for p, Initial residual = 2.87583547617002e-12, Final residual = 1.69488850581865e-17, No Iterations 1
DILUPBiCGStab:  Solving for p, Initial residual = 2.87027145782178e-12, Final residual = 1.65568619117724e-17, No Iterations 1
DILUPBiCGStab:  Solving for p, Initial residual = 2.89970764546695e-12, Final residual = 1.70475052045283e-17, No Iterations 1
DILUPBiCGStab:  Solving for p, Initial residual = 2.88545511751034e-12, Final residual = 1.64813824414005e-17, No Iterations 1
DILUPBiCGStab:  Solving for p, Initial residual = 2.88706639843536e-12, Final residual = 1.66124220391264e-17, No Iterations 1
diagonal:  Solving for rho, Initial residual = 0, Final residual = 0, No Iterations 0
time step continuity errors : sum local = 1.47807401886408e-16, global = -4.23126723452449e-17, cumulative = -3.43399592718771e-06
DILUPBiCGStab:  Solving for p, Initial residual = 2.91212343911146e-12, Final residual = 1.70189103043024e-17, No Iterations 1
DILUPBiCGStab:  Solving for p, Initial residual = 2.87177726941998e-12, Final residual = 1.58964377218483e-17, No Iterations 1
DILUPBiCGStab:  Solving for p, Initial residual = 2.8751622496654e-12, Final residual = 1.71166729815797e-17, No Iterations 1
DILUPBiCGStab:  Solving for p, Initial residual = 2.8727263323178e-12, Final residual = 1.67204247872436e-17, No Iterations 1
DILUPBiCGStab:  Solving for p, Initial residual = 2.87981518109834e-12, Final residual = 1.60318310446926e-17, No Iterations 1
DILUPBiCGStab:  Solving for p, Initial residual = 2.87578351546667e-12, Final residual = 1.57308097682947e-17, No Iterations 1
DILUPBiCGStab:  Solving for p, Initial residual = 2.89359431312031e-12, Final residual = 1.5331581993656e-17, No Iterations 1
DILUPBiCGStab:  Solving for p, Initial residual = 2.88380801612299e-12, Final residual = 1.52036433161308e-17, No Iterations 1
DILUPBiCGStab:  Solving for p, Initial residual = 2.8537327191638e-12, Final residual = 1.52920278548068e-17, No Iterations 1
DILUPBiCGStab:  Solving for p, Initial residual = 2.85813667811774e-12, Final residual = 1.48643492072183e-17, No Iterations 1
DILUPBiCGStab:  Solving for p, Initial residual = 2.83711910823987e-12, Final residual = 1.5953904478372e-17, No Iterations 1
diagonal:  Solving for rho, Initial residual = 0, Final residual = 0, No Iterations 0
time step continuity errors : sum local = 1.47573883458028e-16, global = -4.14244029334068e-17, cumulative = -3.43399592722913e-06
DILUPBiCGStab:  Solving for p, Initial residual = 2.84774957649073e-12, Final residual = 1.68367231424983e-17, No Iterations 1
DILUPBiCGStab:  Solving for p, Initial residual = 2.86868926004436e-12, Final residual = 1.60737729252973e-17, No Iterations 1
DILUPBiCGStab:  Solving for p, Initial residual = 2.87224161709807e-12, Final residual = 1.68942782966639e-17, No Iterations 1
DILUPBiCGStab:  Solving for p, Initial residual = 2.88124818029326e-12, Final residual = 1.74058131255273e-17, No Iterations 1
DILUPBiCGStab:  Solving for p, Initial residual = 2.87176625692282e-12, Final residual = 1.59318991437013e-17, No Iterations 1
DILUPBiCGStab:  Solving for p, Initial residual = 2.86920952881642e-12, Final residual = 1.51361131802561e-17, No Iterations 1
DILUPBiCGStab:  Solving for p, Initial residual = 2.86591452513459e-12, Final residual = 1.5397150746876e-17, No Iterations 1
DILUPBiCGStab:  Solving for p, Initial residual = 2.86201391379672e-12, Final residual = 1.59712371156701e-17, No Iterations 1
DILUPBiCGStab:  Solving for p, Initial residual = 2.89810732926349e-12, Final residual = 1.65314224291171e-17, No Iterations 1
DILUPBiCGStab:  Solving for p, Initial residual = 2.88770182234322e-12, Final residual = 1.5241544768298e-17, No Iterations 1
DILUPBiCGStab:  Solving for p, Initial residual = 2.87039946419119e-12, Final residual = 1.5790736192419e-17, No Iterations 1
diagonal:  Solving for rho, Initial residual = 0, Final residual = 0, No Iterations 0
time step continuity errors : sum local = 1.47344831288717e-16, global = -4.17487590047675e-17, cumulative = -3.43399592727088e-06
DILUPBiCGStab:  Solving for p, Initial residual = 2.86570828186144e-12, Final residual = 1.53092241275098e-17, No Iterations 1
DILUPBiCGStab:  Solving for p, Initial residual = 2.88420783471194e-12, Final residual = 1.56946385096043e-17, No Iterations 1
DILUPBiCGStab:  Solving for p, Initial residual = 2.87915488149289e-12, Final residual = 1.6501373033324e-17, No Iterations 1
DILUPBiCGStab:  Solving for p, Initial residual = 2.88230585015901e-12, Final residual = 1.59696134095508e-17, No Iterations 1
DILUPBiCGStab:  Solving for p, Initial residual = 2.85570182257573e-12, Final residual = 1.63117876504699e-17, No Iterations 1
DILUPBiCGStab:  Solving for p, Initial residual = 2.85568640149396e-12, Final residual = 1.61538156066235e-17, No Iterations 1
DILUPBiCGStab:  Solving for p, Initial residual = 2.87038269842138e-12, Final residual = 1.62280708765219e-17, No Iterations 1
DILUPBiCGStab:  Solving for p, Initial residual = 2.87372952339237e-12, Final residual = 1.61935099481756e-17, No Iterations 1
DILUPBiCGStab:  Solving for p, Initial residual = 2.8565115220039e-12, Final residual = 1.55294454843059e-17, No Iterations 1
DILUPBiCGStab:  Solving for p, Initial residual = 2.87743009495134e-12, Final residual = 1.62709174553891e-17, No Iterations 1
DILUPBiCGStab:  Solving for p, Initial residual = 2.8565252896175e-12, Final residual = 1.70491233344552e-17, No Iterations 1
diagonal:  Solving for rho, Initial residual = 0, Final residual = 0, No Iterations 0
time step continuity errors : sum local = 1.47254108491537e-16, global = -4.10494223138644e-17, cumulative = -3.43399592731193e-06
DILUPBiCGStab:  Solving for p, Initial residual = 2.85400861329369e-12, Final residual = 1.65067132275127e-17, No Iterations 1
DILUPBiCGStab:  Solving for p, Initial residual = 2.85992112896614e-12, Final residual = 1.54906672750779e-17, No Iterations 1
DILUPBiCGStab:  Solving for p, Initial residual = 2.87495498642155e-12, Final residual = 1.50214864448196e-17, No Iterations 1
DILUPBiCGStab:  Solving for p, Initial residual = 2.86861071830934e-12, Final residual = 1.58366761938592e-17, No Iterations 1
DILUPBiCGStab:  Solving for p, Initial residual = 2.87683016885124e-12, Final residual = 1.52939997231609e-17, No Iterations 1
DILUPBiCGStab:  Solving for p, Initial residual = 2.87662103300482e-12, Final residual = 1.55996222960953e-17, No Iterations 1
DILUPBiCGStab:  Solving for p, Initial residual = 2.88051080914489e-12, Final residual = 1.58305046032835e-17, No Iterations 1
DILUPBiCGStab:  Solving for p, Initial residual = 2.89419449819739e-12, Final residual = 1.57758733796594e-17, No Iterations 1
DILUPBiCGStab:  Solving for p, Initial residual = 2.87171856332755e-12, Final residual = 1.5970011247596e-17, No Iterations 1
DILUPBiCGStab:  Solving for p, Initial residual = 2.88899850802019e-12, Final residual = 1.64557095940888e-17, No Iterations 1
DILUPBiCGStab:  Solving for p, Initial residual = 2.8868738052755e-12, Final residual = 1.5095529006294e-17, No Iterations 1
diagonal:  Solving for rho, Initial residual = 0, Final residual = 0, No Iterations 0
time step continuity errors : sum local = 1.47279191648714e-16, global = -4.1579232189877e-17, cumulative = -3.43399592735351e-06
DILUPBiCGStab:  Solving for p, Initial residual = 2.8553457810537e-12, Final residual = 1.53267785875e-17, No Iterations 1
DILUPBiCGStab:  Solving for p, Initial residual = 2.85838216835269e-12, Final residual = 1.65714195892822e-17, No Iterations 1
DILUPBiCGStab:  Solving for p, Initial residual = 2.86564072672576e-12, Final residual = 1.65249263006674e-17, No Iterations 1
DILUPBiCGStab:  Solving for p, Initial residual = 2.8675921280666e-12, Final residual = 1.58133456879815e-17, No Iterations 1
DILUPBiCGStab:  Solving for p, Initial residual = 2.85316403365346e-12, Final residual = 1.55968233680777e-17, No Iterations 1
DILUPBiCGStab:  Solving for p, Initial residual = 2.8602110676157e-12, Final residual = 1.69671832971915e-17, No Iterations 1
DILUPBiCGStab:  Solving for p, Initial residual = 2.86832666242099e-12, Final residual = 1.53870889631467e-17, No Iterations 1
DILUPBiCGStab:  Solving for p, Initial residual = 2.85091081857368e-12, Final residual = 1.51286532225574e-17, No Iterations 1
DILUPBiCGStab:  Solving for p, Initial residual = 2.87452971637428e-12, Final residual = 1.60773556200859e-17, No Iterations 1
DILUPBiCGStab:  Solving for p, Initial residual = 2.87684939888636e-12, Final residual = 1.63164357821085e-17, No Iterations 1
DILUPBiCGStab:  Solving for p, Initial residual = 2.87560749480464e-12, Final residual = 1.60359209524657e-17, No Iterations 1
diagonal:  Solving for rho, Initial residual = 0, Final residual = 0, No Iterations 0
time step continuity errors : sum local = 1.46974054123965e-16, global = -4.17984312497607e-17, cumulative = -3.43399592739531e-06
DILUPBiCGStab:  Solving for p, Initial residual = 2.8738066726283e-12, Final residual = 1.58427770069669e-17, No Iterations 1
DILUPBiCGStab:  Solving for p, Initial residual = 2.86719741132382e-12, Final residual = 1.64243283486186e-17, No Iterations 1
DILUPBiCGStab:  Solving for p, Initial residual = 2.87565169221087e-12, Final residual = 1.67146014875809e-17, No Iterations 1
DILUPBiCGStab:  Solving for p, Initial residual = 2.86779590109805e-12, Final residual = 1.58903266650391e-17, No Iterations 1
DILUPBiCGStab:  Solving for p, Initial residual = 2.87344798754905e-12, Final residual = 1.69081611697128e-17, No Iterations 1
DILUPBiCGStab:  Solving for p, Initial residual = 2.86006398464052e-12, Final residual = 1.70990432025667e-17, No Iterations 1
DILUPBiCGStab:  Solving for p, Initial residual = 2.87086334770301e-12, Final residual = 1.58891756514898e-17, No Iterations 1
DILUPBiCGStab:  Solving for p, Initial residual = 2.87058770657348e-12, Final residual = 1.66743025424231e-17, No Iterations 1
DILUPBiCGStab:  Solving for p, Initial residual = 2.86906059315983e-12, Final residual = 1.5744177700896e-17, No Iterations 1
DILUPBiCGStab:  Solving for p, Initial residual = 2.88280104199283e-12, Final residual = 1.67131650075693e-17, No Iterations 1
DILUPBiCGStab:  Solving for p, Initial residual = 2.89071974259321e-12, Final residual = 1.63647019699318e-17, No Iterations 1
diagonal:  Solving for rho, Initial residual = 0, Final residual = 0, No Iterations 0
time step continuity errors : sum local = 1.47252262677802e-16, global = -4.14424666500401e-17, cumulative = -3.43399592743675e-06
DILUPBiCGStab:  Solving for p, Initial residual = 2.87957227266432e-12, Final residual = 1.62600826214578e-17, No Iterations 1
DILUPBiCGStab:  Solving for p, Initial residual = 2.86313337954903e-12, Final residual = 1.55417019449312e-17, No Iterations 1
DILUPBiCGStab:  Solving for p, Initial residual = 2.85276476887712e-12, Final residual = 1.62332179005329e-17, No Iterations 1
DILUPBiCGStab:  Solving for p, Initial residual = 2.86894354354327e-12, Final residual = 1.5852366836811e-17, No Iterations 1
DILUPBiCGStab:  Solving for p, Initial residual = 2.88366956305717e-12, Final residual = 1.60296611424958e-17, No Iterations 1
DILUPBiCGStab:  Solving for p, Initial residual = 2.87070665668251e-12, Final residual = 1.54794803682683e-17, No Iterations 1
DILUPBiCGStab:  Solving for p, Initial residual = 2.88436134629207e-12, Final residual = 1.6102391023211e-17, No Iterations 1
DILUPBiCGStab:  Solving for p, Initial residual = 2.87642979844232e-12, Final residual = 1.69874149535362e-17, No Iterations 1
DILUPBiCGStab:  Solving for p, Initial residual = 2.87907167219624e-12, Final residual = 1.63462688701335e-17, No Iterations 1
DILUPBiCGStab:  Solving for p, Initial residual = 2.86163864024729e-12, Final residual = 1.62991421639459e-17, No Iterations 1
DILUPBiCGStab:  Solving for p, Initial residual = 2.87479282899541e-12, Final residual = 1.60178250535716e-17, No Iterations 1
diagonal:  Solving for rho, Initial residual = 0, Final residual = 0, No Iterations 0
time step continuity errors : sum local = 1.48082774265916e-16, global = -4.13571445133847e-17, cumulative = -3.43399592747811e-06
DILUPBiCGStab:  Solving for p, Initial residual = 2.87783900960746e-12, Final residual = 1.59867510208856e-17, No Iterations 1
DILUPBiCGStab:  Solving for p, Initial residual = 2.87255014033266e-12, Final residual = 1.62925504110982e-17, No Iterations 1
DILUPBiCGStab:  Solving for p, Initial residual = 2.86801638611158e-12, Final residual = 1.6306451789778e-17, No Iterations 1
DILUPBiCGStab:  Solving for p, Initial residual = 2.83689325045033e-12, Final residual = 1.57068984221303e-17, No Iterations 1
DILUPBiCGStab:  Solving for p, Initial residual = 2.87118171803824e-12, Final residual = 1.57807155757191e-17, No Iterations 1
DILUPBiCGStab:  Solving for p, Initial residual = 2.84674680376392e-12, Final residual = 1.62547988580023e-17, No Iterations 1
DILUPBiCGStab:  Solving for p, Initial residual = 2.84600023893345e-12, Final residual = 1.56818495173275e-17, No Iterations 1
DILUPBiCGStab:  Solving for p, Initial residual = 2.87029162220156e-12, Final residual = 1.56175904148e-17, No Iterations 1
DILUPBiCGStab:  Solving for p, Initial residual = 2.8673749360445e-12, Final residual = 1.57650547287212e-17, No Iterations 1
DILUPBiCGStab:  Solving for p, Initial residual = 2.87887778212413e-12, Final residual = 1.65416909801073e-17, No Iterations 1
DILUPBiCGStab:  Solving for p, Initial residual = 2.87290457619757e-12, Final residual = 1.65285860665459e-17, No Iterations 1
diagonal:  Solving for rho, Initial residual = 0, Final residual = 0, No Iterations 0
time step continuity errors : sum local = 1.47043744522875e-16, global = -4.17291417980277e-17, cumulative = -3.43399592751983e-06
DILUPBiCGStab:  Solving for p, Initial residual = 2.85609444558922e-12, Final residual = 1.57011546100517e-17, No Iterations 1
DILUPBiCGStab:  Solving for p, Initial residual = 2.87440903908814e-12, Final residual = 1.59143603440214e-17, No Iterations 1
DILUPBiCGStab:  Solving for p, Initial residual = 2.88006595446328e-12, Final residual = 1.60950458694549e-17, No Iterations 1
DILUPBiCGStab:  Solving for p, Initial residual = 2.86276142488896e-12, Final residual = 1.59590565251018e-17, No Iterations 1
DILUPBiCGStab:  Solving for p, Initial residual = 2.87458788857543e-12, Final residual = 1.70005967266868e-17, No Iterations 1
DILUPBiCGStab:  Solving for p, Initial residual = 2.87405354938611e-12, Final residual = 1.6576634818354e-17, No Iterations 1
DILUPBiCGStab:  Solving for p, Initial residual = 2.87471536699484e-12, Final residual = 1.66023430806766e-17, No Iterations 1
DILUPBiCGStab:  Solving for p, Initial residual = 2.8888627503065e-12, Final residual = 1.65607042698474e-17, No Iterations 1
DILUPBiCGStab:  Solving for p, Initial residual = 2.86715302068123e-12, Final residual = 1.68362471997478e-17, No Iterations 1
DILUPBiCGStab:  Solving for p, Initial residual = 2.87644462786158e-12, Final residual = 1.73093949513028e-17, No Iterations 1
DILUPBiCGStab:  Solving for p, Initial residual = 2.87425342581031e-12, Final residual = 1.58782685644388e-17, No Iterations 1
diagonal:  Solving for rho, Initial residual = 0, Final residual = 0, No Iterations 0
time step continuity errors : sum local = 1.47695146924e-16, global = -4.16374814639903e-17, cumulative = -3.43399592756147e-06
DILUPBiCGStab:  Solving for p, Initial residual = 2.8631077886414e-12, Final residual = 1.561221823113e-17, No Iterations 1
DILUPBiCGStab:  Solving for p, Initial residual = 2.85763401977893e-12, Final residual = 1.53698213400633e-17, No Iterations 1
DILUPBiCGStab:  Solving for p, Initial residual = 2.85561758334761e-12, Final residual = 1.55439255760094e-17, No Iterations 1
DILUPBiCGStab:  Solving for p, Initial residual = 2.8508481660711e-12, Final residual = 1.59119502586493e-17, No Iterations 1
DILUPBiCGStab:  Solving for p, Initial residual = 2.85446187476599e-12, Final residual = 1.60770516086458e-17, No Iterations 1
DILUPBiCGStab:  Solving for p, Initial residual = 2.83611063005119e-12, Final residual = 1.58939459220856e-17, No Iterations 1
DILUPBiCGStab:  Solving for p, Initial residual = 2.854426490545e-12, Final residual = 1.60904662860248e-17, No Iterations 1
DILUPBiCGStab:  Solving for p, Initial residual = 2.85715839465011e-12, Final residual = 1.51467985798062e-17, No Iterations 1
DILUPBiCGStab:  Solving for p, Initial residual = 2.86624302545333e-12, Final residual = 1.65163779602291e-17, No Iterations 1
DILUPBiCGStab:  Solving for p, Initial residual = 2.8614759270166e-12, Final residual = 1.62201567431201e-17, No Iterations 1
DILUPBiCGStab:  Solving for p, Initial residual = 2.86927667158096e-12, Final residual = 1.67873256761625e-17, No Iterations 1
diagonal:  Solving for rho, Initial residual = 0, Final residual = 0, No Iterations 0
time step continuity errors : sum local = 1.47779882714729e-16, global = -4.1883088986965e-17, cumulative = -3.43399592760335e-06
DILUPBiCGStab:  Solving for p, Initial residual = 2.88640947751875e-12, Final residual = 1.61794284657763e-17, No Iterations 1
DILUPBiCGStab:  Solving for p, Initial residual = 2.85756358601475e-12, Final residual = 1.64053274945602e-17, No Iterations 1
DILUPBiCGStab:  Solving for p, Initial residual = 2.86241085375722e-12, Final residual = 1.61015670650231e-17, No Iterations 1
DILUPBiCGStab:  Solving for p, Initial residual = 2.87392295129041e-12, Final residual = 1.60133589955504e-17, No Iterations 1
DILUPBiCGStab:  Solving for p, Initial residual = 2.87447590893083e-12, Final residual = 1.68478805865803e-17, No Iterations 1
DILUPBiCGStab:  Solving for p, Initial residual = 2.86167389697206e-12, Final residual = 1.64228406663443e-17, No Iterations 1
DILUPBiCGStab:  Solving for p, Initial residual = 2.84918444828825e-12, Final residual = 1.54843286246462e-17, No Iterations 1
DILUPBiCGStab:  Solving for p, Initial residual = 2.84237453960541e-12, Final residual = 1.60514713194062e-17, No Iterations 1
DILUPBiCGStab:  Solving for p, Initial residual = 2.85901169751116e-12, Final residual = 1.62688276809743e-17, No Iterations 1
DILUPBiCGStab:  Solving for p, Initial residual = 2.85978598881308e-12, Final residual = 1.54900792767353e-17, No Iterations 1
DILUPBiCGStab:  Solving for p, Initial residual = 2.85463933374634e-12, Final residual = 1.55579014416872e-17, No Iterations 1
diagonal:  Solving for rho, Initial residual = 0, Final residual = 0, No Iterations 0
time step continuity errors : sum local = 1.47475614661426e-16, global = -4.13921890325069e-17, cumulative = -3.43399592764475e-06
DILUPBiCGStab:  Solving for p, Initial residual = 2.8453324270043e-12, Final residual = 1.63075002985933e-17, No Iterations 1
DILUPBiCGStab:  Solving for p, Initial residual = 2.85709687965418e-12, Final residual = 1.6208358158448e-17, No Iterations 1
DILUPBiCGStab:  Solving for p, Initial residual = 2.85863144761985e-12, Final residual = 1.58681107742257e-17, No Iterations 1
DILUPBiCGStab:  Solving for p, Initial residual = 2.86371645620977e-12, Final residual = 1.61155361887854e-17, No Iterations 1
DILUPBiCGStab:  Solving for p, Initial residual = 2.86746298223385e-12, Final residual = 1.65705683573062e-17, No Iterations 1
DILUPBiCGStab:  Solving for p, Initial residual = 2.87055302159037e-12, Final residual = 1.60606244702554e-17, No Iterations 1
DILUPBiCGStab:  Solving for p, Initial residual = 2.87550328247666e-12, Final residual = 1.64678653613436e-17, No Iterations 1
DILUPBiCGStab:  Solving for p, Initial residual = 2.86274536632531e-12, Final residual = 1.6542929680081e-17, No Iterations 1
DILUPBiCGStab:  Solving for p, Initial residual = 2.86082328516064e-12, Final residual = 1.66556982816946e-17, No Iterations 1
DILUPBiCGStab:  Solving for p, Initial residual = 2.85084431329075e-12, Final residual = 1.58631297246526e-17, No Iterations 1
DILUPBiCGStab:  Solving for p, Initial residual = 2.85868462754213e-12, Final residual = 1.57117915974857e-17, No Iterations 1
diagonal:  Solving for rho, Initial residual = 0, Final residual = 0, No Iterations 0
time step continuity errors : sum local = 1.47158126804768e-16, global = -4.18595566243894e-17, cumulative = -3.43399592768661e-06
DILUPBiCGStab:  Solving for epsilon, Initial residual = 1.40939405685767e-06, Final residual = 6.93194901088272e-11, No Iterations 1
DILUPBiCGStab:  Solving for k, Initial residual = 0.00285248549525259, Final residual = 5.72122820158379e-12, No Iterations 2
ExecutionTime = 17.03 s  ClockTime = 16 s

Time = 4e-09

Courant Number mean: 0.000292584945708281 max: 0.0351994626442325
diagonal:  Solving for rho, Initial residual = 0, Final residual = 0, No Iterations 0
PIMPLE: iteration 1
DILUPBiCGStab:  Solving for Ux, Initial residual = 9.36844159117684e-05, Final residual = 7.98609796698584e-12, No Iterations 1
DILUPBiCGStab:  Solving for Uy, Initial residual = 0.168323228696255, Final residual = 9.73592518237464e-11, No Iterations 2
DILUPBiCGStab:  Solving for Uz, Initial residual = 0.0640680510203411, Final residual = 7.03236709545589e-11, No Iterations 2
DILUPBiCGStab:  Solving for e, Initial residual = 0.00910023888067393, Final residual = 5.84935685556936e-12, No Iterations 2
DILUPBiCGStab:  Solving for p, Initial residual = 0.00961398936459533, Final residual = 5.18267243212787e-13, No Iterations 2
DILUPBiCGStab:  Solving for p, Initial residual = 5.28325416793123e-08, Final residual = 1.28585112433891e-15, No Iterations 1
DILUPBiCGStab:  Solving for p, Initial residual = 1.56638845595664e-10, Final residual = 4.98107040035904e-15, No Iterations 1
DILUPBiCGStab:  Solving for p, Initial residual = 2.55373362701404e-12, Final residual = 2.41934782563241e-17, No Iterations 1
DILUPBiCGStab:  Solving for p, Initial residual = 1.82442707277722e-12, Final residual = 9.74110388531285e-18, No Iterations 1
DILUPBiCGStab:  Solving for p, Initial residual = 1.78892434240552e-12, Final residual = 9.50152944340859e-18, No Iterations 1
DILUPBiCGStab:  Solving for p, Initial residual = 1.78114156791909e-12, Final residual = 9.70853501384122e-18, No Iterations 1
DILUPBiCGStab:  Solving for p, Initial residual = 1.78475146751492e-12, Final residual = 9.56591140112236e-18, No Iterations 1
DILUPBiCGStab:  Solving for p, Initial residual = 1.79020440242782e-12, Final residual = 1.00530538938359e-17, No Iterations 1
DILUPBiCGStab:  Solving for p, Initial residual = 1.78236841634833e-12, Final residual = 9.76954700633779e-18, No Iterations 1
DILUPBiCGStab:  Solving for p, Initial residual = 1.76957747576764e-12, Final residual = 9.59944769609386e-18, No Iterations 1
diagonal:  Solving for rho, Initial residual = 0, Final residual = 0, No Iterations 0
[...]
DILUPBiCGStab:  Solving for p, Initial residual = 4.44702966630362e-14, Final residual = 4.44702966630362e-14, No Iterations 0
DILUPBiCGStab:  Solving for p, Initial residual = 4.44702966630362e-14, Final residual = 4.44702966630362e-14, No Iterations 0
DILUPBiCGStab:  Solving for p, Initial residual = 4.44702966630362e-14, Final residual = 4.44702966630362e-14, No Iterations 0
DILUPBiCGStab:  Solving for p, Initial residual = 4.44702966630362e-14, Final residual = 4.44702966630362e-14, No Iterations 0
DILUPBiCGStab:  Solving for p, Initial residual = 4.44702966630362e-14, Final residual = 4.44702966630362e-14, No Iterations 0
diagonal:  Solving for rho, Initial residual = 0, Final residual = 0, No Iterations 0
time step continuity errors : sum local = 1.51426211583004e-16, global = -9.31134107073659e-19, cumulative = -3.43399592979278e-06
DILUPBiCGStab:  Solving for epsilon, Initial residual = 5.14020059058816e-07, Final residual = 3.39409228812037e-11, No Iterations 1
DILUPBiCGStab:  Solving for k, Initial residual = 0.00018697397571009, Final residual = 1.33707400857364e-11, No Iterations 1
ExecutionTime = 171.82 s  ClockTime = 176 s

Time = 4.2e-08

Courant Number mean: 0.000292570256773439 max: 0.194598708153505
diagonal:  Solving for rho, Initial residual = 0, Final residual = 0, No Iterations 0
PIMPLE: iteration 1
DILUPBiCGStab:  Solving for Ux, Initial residual = 1.00835024807908e-05, Final residual = 5.5373352226053e-10, No Iterations 1
DILUPBiCGStab:  Solving for Uy, Initial residual = 0.00564671761715104, Final residual = 2.66060388268583e-10, No Iterations 1
DILUPBiCGStab:  Solving for Uz, Initial residual = 0.00500849639789597, Final residual = 2.99044447405021e-10, No Iterations 1
DILUPBiCGStab:  Solving for e, Initial residual = 0.000934417157824201, Final residual = 1.3967258489875e-10, No Iterations 1
DILUPBiCGStab:  Solving for p, Initial residual = 0.000220214682725369, Final residual = 6.91193303681787e-15, No Iterations 2
DILUPBiCGStab:  Solving for p, Initial residual = 1.73301213563749e-08, Final residual = 3.88028825315493e-13, No Iterations 1
DILUPBiCGStab:  Solving for p, Initial residual = 4.69892013814356e-11, Final residual = 2.20290668656026e-15, No Iterations 1
DILUPBiCGStab:  Solving for p, Initial residual = 4.60980018598334e-13, Final residual = 4.60980018598334e-13, No Iterations 0
DILUPBiCGStab:  Solving for p, Initial residual = 4.60980018598334e-13, Final residual = 4.60980018598334e-13, No Iterations 0
DILUPBiCGStab:  Solving for p, Initial residual = 4.60980018598334e-13, Final residual = 4.60980018598334e-13, No Iterations 0
DILUPBiCGStab:  Solving for p, Initial residual = 4.60980018598334e-13, Final residual = 4.60980018598334e-13, No Iterations 0
DILUPBiCGStab:  Solving for p, Initial residual = 4.60980018598334e-13, Final residual = 4.60980018598334e-13, No Iterations 0
DILUPBiCGStab:  Solving for p, Initial residual = 4.60980018598334e-13, Final residual = 4.60980018598334e-13, No Iterations 0
DILUPBiCGStab:  Solving for p, Initial residual = 4.60980018598334e-13, Final residual = 4.60980018598334e-13, No Iterations 0
DILUPBiCGStab:  Solving for p, Initial residual = 4.60980018598334e-13, Final residual = 4.60980018598334e-13, No Iterations 0
diagonal:  Solving for rho, Initial residual = 0, Final residual = 0, No Iterations 0
time step continuity errors : sum local = 8.63381390039982e-16, global = -1.16371536344505e-18, cumulative = -3.43399592979394e-06
DILUPBiCGStab:  Solving for p, Initial residual = 1.45231990411779e-07, Final residual = 8.71372840729922e-17, No Iterations 1
DILUPBiCGStab:  Solving for p, Initial residual = 1.3752682199917e-09, Final residual = 1.00807468698427e-14, No Iterations 1
DILUPBiCGStab:  Solving for p, Initial residual = 1.5586598605599e-11, Final residual = 1.13187595655702e-16, No Iterations 1
DILUPBiCGStab:  Solving for p, Initial residual = 2.17381024923661e-13, Final residual = 2.17381024923661e-13, No Iterations 0
DILUPBiCGStab:  Solving for p, Initial residual = 2.17381024923661e-13, Final residual = 2.17381024923661e-13, No Iterations 0
DILUPBiCGStab:  Solving for p, Initial residual = 2.17381024923661e-13, Final residual = 2.17381024923661e-13, No Iterations 0
DILUPBiCGStab:  Solving for p, Initial residual = 2.17381024923661e-13, Final residual = 2.17381024923661e-13, No Iterations 0
DILUPBiCGStab:  Solving for p, Initial residual = 2.17381024923661e-13, Final residual = 2.17381024923661e-13, No Iterations 0
DILUPBiCGStab:  Solving for p, Initial residual = 2.17381024923661e-13, Final residual = 2.17381024923661e-13, No Iterations 0
DILUPBiCGStab:  Solving for p, Initial residual = 2.17381024923661e-13, Final residual = 2.17381024923661e-13, No Iterations 0
DILUPBiCGStab:  Solving for p, Initial residual = 2.17381024923661e-13, Final residual = 2.17381024923661e-13, No Iterations 0
diagonal:  Solving for rho, Initial residual = 0, Final residual = 0, No Iterations 0
time step continuity errors : sum local = 4.4853061419139e-16, global = -4.58420264315941e-19, cumulative = -3.4339959297944e-06
DILUPBiCGStab:  Solving for p, Initial residual = 9.84697099392555e-08, Final residual = 7.74822594540211e-17, No Iterations 1
DILUPBiCGStab:  Solving for p, Initial residual = 7.37727404146735e-11, Final residual = 3.37457897268106e-15, No Iterations 1
DILUPBiCGStab:  Solving for p, Initial residual = 2.52696815298749e-13, Final residual = 2.52696815298749e-13, No Iterations 0
DILUPBiCGStab:  Solving for p, Initial residual = 2.52696815298749e-13, Final residual = 2.52696815298749e-13, No Iterations 0
DILUPBiCGStab:  Solving for p, Initial residual = 2.52696815298749e-13, Final residual = 2.52696815298749e-13, No Iterations 0
DILUPBiCGStab:  Solving for p, Initial residual = 2.52696815298749e-13, Final residual = 2.52696815298749e-13, No Iterations 0
DILUPBiCGStab:  Solving for p, Initial residual = 2.52696815298749e-13, Final residual = 2.52696815298749e-13, No Iterations 0
DILUPBiCGStab:  Solving for p, Initial residual = 2.52696815298749e-13, Final residual = 2.52696815298749e-13, No Iterations 0
DILUPBiCGStab:  Solving for p, Initial residual = 2.52696815298749e-13, Final residual = 2.52696815298749e-13, No Iterations 0
DILUPBiCGStab:  Solving for p, Initial residual = 2.52696815298749e-13, Final residual = 2.52696815298749e-13, No Iterations 0
DILUPBiCGStab:  Solving for p, Initial residual = 2.52696815298749e-13, Final residual = 2.52696815298749e-13, No Iterations 0
diagonal:  Solving for rho, Initial residual = 0, Final residual = 0, No Iterations 0
time step continuity errors : sum local = 5.09332321339592e-16, global = 2.15803217593752e-18, cumulative = -3.43399592979224e-06
DILUPBiCGStab:  Solving for p, Initial residual = 5.38023792579313e-08, Final residual = 9.63090293062476e-13, No Iterations 1
DILUPBiCGStab:  Solving for p, Initial residual = 2.92885546963757e-11, Final residual = 7.11016902873223e-16, No Iterations 1
DILUPBiCGStab:  Solving for p, Initial residual = 9.5760785892235e-14, Final residual = 9.5760785892235e-14, No Iterations 0
DILUPBiCGStab:  Solving for p, Initial residual = 9.5760785892235e-14, Final residual = 9.5760785892235e-14, No Iterations 0
DILUPBiCGStab:  Solving for p, Initial residual = 9.5760785892235e-14, Final residual = 9.5760785892235e-14, No Iterations 0
DILUPBiCGStab:  Solving for p, Initial residual = 9.5760785892235e-14, Final residual = 9.5760785892235e-14, No Iterations 0
DILUPBiCGStab:  Solving for p, Initial residual = 9.5760785892235e-14, Final residual = 9.5760785892235e-14, No Iterations 0
DILUPBiCGStab:  Solving for p, Initial residual = 9.5760785892235e-14, Final residual = 9.5760785892235e-14, No Iterations 0
DILUPBiCGStab:  Solving for p, Initial residual = 9.5760785892235e-14, Final residual = 9.5760785892235e-14, No Iterations 0
DILUPBiCGStab:  Solving for p, Initial residual = 9.5760785892235e-14, Final residual = 9.5760785892235e-14, No Iterations 0
DILUPBiCGStab:  Solving for p, Initial residual = 9.5760785892235e-14, Final residual = 9.5760785892235e-14, No Iterations 0
diagonal:  Solving for rho, Initial residual = 0, Final residual = 0, No Iterations 0
time step continuity errors : sum local = 2.41638861589836e-16, global = -1.37081223824486e-18, cumulative = -3.43399592979361e-06
DILUPBiCGStab:  Solving for p, Initial residual = 3.62711745556506e-08, Final residual = 1.8353331978036e-17, No Iterations 1
DILUPBiCGStab:  Solving for p, Initial residual = 2.38194572762274e-11, Final residual = 9.03398776910296e-16, No Iterations 1
DILUPBiCGStab:  Solving for p, Initial residual = 1.00408106898127e-13, Final residual = 1.00408106898127e-13, No Iterations 0
DILUPBiCGStab:  Solving for p, Initial residual = 1.00408106898127e-13, Final residual = 1.00408106898127e-13, No Iterations 0
DILUPBiCGStab:  Solving for p, Initial residual = 1.00408106898127e-13, Final residual = 1.00408106898127e-13, No Iterations 0
DILUPBiCGStab:  Solving for p, Initial residual = 1.00408106898127e-13, Final residual = 1.00408106898127e-13, No Iterations 0
DILUPBiCGStab:  Solving for p, Initial residual = 1.00408106898127e-13, Final residual = 1.00408106898127e-13, No Iterations 0
DILUPBiCGStab:  Solving for p, Initial residual = 1.00408106898127e-13, Final residual = 1.00408106898127e-13, No Iterations 0
DILUPBiCGStab:  Solving for p, Initial residual = 1.00408106898127e-13, Final residual = 1.00408106898127e-13, No Iterations 0
DILUPBiCGStab:  Solving for p, Initial residual = 1.00408106898127e-13, Final residual = 1.00408106898127e-13, No Iterations 0
DILUPBiCGStab:  Solving for p, Initial residual = 1.00408106898127e-13, Final residual = 1.00408106898127e-13, No Iterations 0
diagonal:  Solving for rho, Initial residual = 0, Final residual = 0, No Iterations 0
time step continuity errors : sum local = 2.48912256347748e-16, global = -4.2258443448838e-19, cumulative = -3.43399592979403e-06
DILUPBiCGStab:  Solving for epsilon, Initial residual = 5.11320879632667e-07, Final residual = 3.3739438383766e-11, No Iterations 1
DILUPBiCGStab:  Solving for k, Initial residual = 0.000185135344281467, Final residual = 1.31903594676202e-11, No Iterations 1
ExecutionTime = 174.2 s  ClockTime = 178 s

Time = 4.3e-08

Courant Number mean: 0.000292565502443673 max: 0.32131955987033
diagonal:  Solving for rho, Initial residual = 0, Final residual = 0, No Iterations 0
PIMPLE: iteration 1
DILUPBiCGStab:  Solving for Ux, Initial residual = 9.84966891069621e-06, Final residual = 5.54506687011282e-10, No Iterations 1
DILUPBiCGStab:  Solving for Uy, Initial residual = 0.00460404359068454, Final residual = 2.04420897985623e-10, No Iterations 1
DILUPBiCGStab:  Solving for Uz, Initial residual = 0.00492832092905526, Final residual = 2.2633718567315e-10, No Iterations 1
DILUPBiCGStab:  Solving for e, Initial residual = 0.000926185671750575, Final residual = 1.35531262542145e-10, No Iterations 1
DILUPBiCGStab:  Solving for p, Initial residual = 0.000213663041587641, Final residual = 6.63669076909979e-15, No Iterations 2
DILUPBiCGStab:  Solving for p, Initial residual = 1.7014469102291e-08, Final residual = 3.82584154628069e-13, No Iterations 1
DILUPBiCGStab:  Solving for p, Initial residual = 4.47883433194116e-11, Final residual = 2.13636138705646e-15, No Iterations 1
DILUPBiCGStab:  Solving for p, Initial residual = 4.41701955593915e-13, Final residual = 4.41701955593915e-13, No Iterations 0
DILUPBiCGStab:  Solving for p, Initial residual = 4.41701955593915e-13, Final residual = 4.41701955593915e-13, No Iterations 0
DILUPBiCGStab:  Solving for p, Initial residual = 4.41701955593915e-13, Final residual = 4.41701955593915e-13, No Iterations 0
DILUPBiCGStab:  Solving for p, Initial residual = 4.41701955593915e-13, Final residual = 4.41701955593915e-13, No Iterations 0
DILUPBiCGStab:  Solving for p, Initial residual = 4.41701955593915e-13, Final residual = 4.41701955593915e-13, No Iterations 0
DILUPBiCGStab:  Solving for p, Initial residual = 4.41701955593915e-13, Final residual = 4.41701955593915e-13, No Iterations 0
DILUPBiCGStab:  Solving for p, Initial residual = 4.41701955593915e-13, Final residual = 4.41701955593915e-13, No Iterations 0
DILUPBiCGStab:  Solving for p, Initial residual = 4.41701955593915e-13, Final residual = 4.41701955593915e-13, No Iterations 0
diagonal:  Solving for rho, Initial residual = 0, Final residual = 0, No Iterations 0
time step continuity errors : sum local = 8.5889381820436e-16, global = 1.76126566259363e-18, cumulative = -3.43399592979227e-06
DILUPBiCGStab:  Solving for p, Initial residual = 4.29530677002316e-08, Final residual = 9.40049387883049e-17, No Iterations 1
DILUPBiCGStab:  Solving for p, Initial residual = 1.57782067039537e-11, Final residual = 2.52472702870326e-16, No Iterations 1
DILUPBiCGStab:  Solving for p, Initial residual = 1.01572066654619e-13, Final residual = 1.01572066654619e-13, No Iterations 0
DILUPBiCGStab:  Solving for p, Initial residual = 1.01572066654619e-13, Final residual = 1.01572066654619e-13, No Iterations 0
DILUPBiCGStab:  Solving for p, Initial residual = 1.01572066654619e-13, Final residual = 1.01572066654619e-13, No Iterations 0
DILUPBiCGStab:  Solving for p, Initial residual = 1.01572066654619e-13, Final residual = 1.01572066654619e-13, No Iterations 0
DILUPBiCGStab:  Solving for p, Initial residual = 1.01572066654619e-13, Final residual = 1.01572066654619e-13, No Iterations 0
DILUPBiCGStab:  Solving for p, Initial residual = 1.01572066654619e-13, Final residual = 1.01572066654619e-13, No Iterations 0
DILUPBiCGStab:  Solving for p, Initial residual = 1.01572066654619e-13, Final residual = 1.01572066654619e-13, No Iterations 0
DILUPBiCGStab:  Solving for p, Initial residual = 1.01572066654619e-13, Final residual = 1.01572066654619e-13, No Iterations 0
DILUPBiCGStab:  Solving for p, Initial residual = 1.01572066654619e-13, Final residual = 1.01572066654619e-13, No Iterations 0
diagonal:  Solving for rho, Initial residual = 0, Final residual = 0, No Iterations 0
time step continuity errors : sum local = 2.59044659917562e-16, global = 2.62393845041667e-18, cumulative = -3.43399592978965e-06
DILUPBiCGStab:  Solving for p, Initial residual = 7.25449884246665e-09, Final residual = 3.71509158533539e-13, No Iterations 1
DILUPBiCGStab:  Solving for p, Initial residual = 1.74673743991928e-12, Final residual = 1.89717358533096e-17, No Iterations 1
DILUPBiCGStab:  Solving for p, Initial residual = 4.21147479226995e-14, Final residual = 4.21147479226995e-14, No Iterations 0
DILUPBiCGStab:  Solving for p, Initial residual = 4.21147479226995e-14, Final residual = 4.21147479226995e-14, No Iterations 0
DILUPBiCGStab:  Solving for p, Initial residual = 4.21147479226995e-14, Final residual = 4.21147479226995e-14, No Iterations 0
DILUPBiCGStab:  Solving for p, Initial residual = 4.21147479226995e-14, Final residual = 4.21147479226995e-14, No Iterations 0
DILUPBiCGStab:  Solving for p, Initial residual = 4.21147479226995e-14, Final residual = 4.21147479226995e-14, No Iterations 0
DILUPBiCGStab:  Solving for p, Initial residual = 4.21147479226995e-14, Final residual = 4.21147479226995e-14, No Iterations 0
DILUPBiCGStab:  Solving for p, Initial residual = 4.21147479226995e-14, Final residual = 4.21147479226995e-14, No Iterations 0
DILUPBiCGStab:  Solving for p, Initial residual = 4.21147479226995e-14, Final residual = 4.21147479226995e-14, No Iterations 0
DILUPBiCGStab:  Solving for p, Initial residual = 4.21147479226995e-14, Final residual = 4.21147479226995e-14, No Iterations 0
diagonal:  Solving for rho, Initial residual = 0, Final residual = 0, No Iterations 0
time step continuity errors : sum local = 1.53815391368533e-16, global = 2.8033707613902e-18, cumulative = -3.43399592978685e-06
DILUPBiCGStab:  Solving for p, Initial residual = 1.21219653921116e-09, Final residual = 6.39995356381716e-14, No Iterations 1
DILUPBiCGStab:  Solving for p, Initial residual = 3.06916104544373e-13, Final residual = 3.06916104544373e-13, No Iterations 0
DILUPBiCGStab:  Solving for p, Initial residual = 3.06916104544373e-13, Final residual = 3.06916104544373e-13, No Iterations 0
DILUPBiCGStab:  Solving for p, Initial residual = 3.06916104544373e-13, Final residual = 3.06916104544373e-13, No Iterations 0
DILUPBiCGStab:  Solving for p, Initial residual = 3.06916104544373e-13, Final residual = 3.06916104544373e-13, No Iterations 0
DILUPBiCGStab:  Solving for p, Initial residual = 3.06916104544373e-13, Final residual = 3.06916104544373e-13, No Iterations 0
DILUPBiCGStab:  Solving for p, Initial residual = 3.06916104544373e-13, Final residual = 3.06916104544373e-13, No Iterations 0
DILUPBiCGStab:  Solving for p, Initial residual = 3.06916104544373e-13, Final residual = 3.06916104544373e-13, No Iterations 0
DILUPBiCGStab:  Solving for p, Initial residual = 3.06916104544373e-13, Final residual = 3.06916104544373e-13, No Iterations 0
DILUPBiCGStab:  Solving for p, Initial residual = 3.06916104544373e-13, Final residual = 3.06916104544373e-13, No Iterations 0
DILUPBiCGStab:  Solving for p, Initial residual = 3.06916104544373e-13, Final residual = 3.06916104544373e-13, No Iterations 0
diagonal:  Solving for rho, Initial residual = 0, Final residual = 0, No Iterations 0
time step continuity errors : sum local = 6.20843264973329e-16, global = 1.15200284192998e-16, cumulative = -3.43399592967165e-06
DILUPBiCGStab:  Solving for p, Initial residual = 1.96833650041041e-10, Final residual = 1.04260551613446e-14, No Iterations 1
DILUPBiCGStab:  Solving for p, Initial residual = 8.21562120473655e-14, Final residual = 8.21562120473655e-14, No Iterations 0
DILUPBiCGStab:  Solving for p, Initial residual = 8.21562120473655e-14, Final residual = 8.21562120473655e-14, No Iterations 0
DILUPBiCGStab:  Solving for p, Initial residual = 8.21562120473655e-14, Final residual = 8.21562120473655e-14, No Iterations 0
DILUPBiCGStab:  Solving for p, Initial residual = 8.21562120473655e-14, Final residual = 8.21562120473655e-14, No Iterations 0
DILUPBiCGStab:  Solving for p, Initial residual = 8.21562120473655e-14, Final residual = 8.21562120473655e-14, No Iterations 0
DILUPBiCGStab:  Solving for p, Initial residual = 8.21562120473655e-14, Final residual = 8.21562120473655e-14, No Iterations 0
DILUPBiCGStab:  Solving for p, Initial residual = 8.21562120473655e-14, Final residual = 8.21562120473655e-14, No Iterations 0
DILUPBiCGStab:  Solving for p, Initial residual = 8.21562120473655e-14, Final residual = 8.21562120473655e-14, No Iterations 0
DILUPBiCGStab:  Solving for p, Initial residual = 8.21562120473655e-14, Final residual = 8.21562120473655e-14, No Iterations 0
DILUPBiCGStab:  Solving for p, Initial residual = 8.21562120473655e-14, Final residual = 8.21562120473655e-14, No Iterations 0
diagonal:  Solving for rho, Initial residual = 0, Final residual = 0, No Iterations 0
time step continuity errors : sum local = 2.24831166344032e-16, global = 2.03215808811128e-17, cumulative = -3.43399592965132e-06
DILUPBiCGStab:  Solving for epsilon, Initial residual = 5.1220281895762e-07, Final residual = 3.34923700890565e-11, No Iterations 1
DILUPBiCGStab:  Solving for k, Initial residual = 0.000183455404746687, Final residual = 1.30472706039139e-11, No Iterations 1
ExecutionTime = 176.55 s  ClockTime = 180 s

Time = 4.4e-08

Courant Number mean: 0.000292570005584266 max: 0.264263915478907
diagonal:  Solving for rho, Initial residual = 0, Final residual = 0, No Iterations 0
PIMPLE: iteration 1
DILUPBiCGStab:  Solving for Ux, Initial residual = 9.62648257993812e-06, Final residual = 5.17097037422921e-10, No Iterations 1
DILUPBiCGStab:  Solving for Uy, Initial residual = 0.00717299008408584, Final residual = 3.25484923647877e-10, No Iterations 1
DILUPBiCGStab:  Solving for Uz, Initial residual = 0.00191387154479399, Final residual = 1.07620314844304e-10, No Iterations 1
DILUPBiCGStab:  Solving for e, Initial residual = 0.000844437199634314, Final residual = 1.264825157972e-10, No Iterations 1
